download/pglib-opf-master/api/pglib_opf_case6468_rte__api.m
%%%%%%%%%%%%%%%%%%%%%%%%%%%%%%%%%%%%%%%%%%%%%%%%%%%%%%%%%%%%%%%%%%%%%%%%%%%
%%%%                                                                  %%%%%
%%%%    IEEE PES Power Grid Library - Optimal Power Flow - v19.05     %%%%%
%%%%          (https://github.com/power-grid-lib/pglib-opf)           %%%%%
%%%%             Benchmark Group - Active Power Increase              %%%%%
%%%%                         08 - May - 2019                          %%%%%
%%%%                                                                  %%%%%
%%%%%%%%%%%%%%%%%%%%%%%%%%%%%%%%%%%%%%%%%%%%%%%%%%%%%%%%%%%%%%%%%%%%%%%%%%%
function mpc = pglib_opf_case6468_rte__api
mpc.version = '2';
mpc.baseMVA = 100.0;

%% bus data
%	bus_i	type	Pd	Qd	Gs	Bs	area	Vm	Va	baseKV	zone	Vmax	Vmin
mpc.bus = [
	1	 1	 0.0	 0.0	 0.0	 0.0	 1	    0.94444	    0.00000	 45.0	 1	    1.00000	    0.88889;
	2	 1	 0.0	 0.0	 0.0	 0.0	 1	    1.00000	    0.00000	 63.0	 1	    1.06349	    0.93651;
	3	 1	 11.70	 -1.20	 0.0	 0.0	 1	    1.01588	    0.00000	 63.0	 1	    1.07937	    0.95238;
	4	 1	 33.80	 -8.20	 0.0	 0.0	 1	    1.01111	    0.00000	 90.0	 1	    1.08889	    0.93333;
	5	 1	 11.00	 -0.90	 0.0	 0.0	 1	    1.00794	    0.00000	 63.0	 1	    1.06349	    0.95238;
	6	 1	 15.64	 4.30	 0.0	 0.0	 1	    1.00000	    0.00000	 63.0	 1	    1.07937	    0.92063;
	7	 1	 1.00	 -0.20	 0.0	 0.0	 1	    1.00000	    0.00000	 63.0	 1	    1.07937	    0.92063;
	8	 1	 0.40	 -4.40	 0.0	 0.0	 1	    0.98889	    0.00000	 225.0	 1	    1.08889	    0.88889;
	9	 1	 16.90	 0.00	 0.0	 0.0	 1	    1.00000	    0.00000	 63.0	 1	    1.06349	    0.93651;
	10	 1	 0.0	 0.0	 0.0	 0.0	 1	    1.00000	    0.00000	 90.0	 1	    1.07778	    0.92222;
	11	 1	 20.00	 -3.10	 0.0	 0.0	 1	    1.00000	    0.00000	 90.0	 1	    1.07778	    0.92222;
	12	 1	 0.0	 0.0	 0.0	 0.0	 1	    1.01588	    0.00000	 63.0	 1	    1.07937	    0.95238;
	13	 1	 0.0	 0.0	 0.0	 0.0	 1	    1.07673	    0.00000	 380.0	 1	    1.10263	    1.05084;
	14	 1	 44.53	 3.60	 0.0	 0.0	 1	    1.02778	    0.00000	 90.0	 1	    1.07778	    0.97778;
	15	 1	 0.0	 0.0	 0.0	 0.0	 1	    1.00000	    0.00000	 63.0	 1	    1.07937	    0.92063;
	16	 1	 12.40	 1.50	 0.0	 0.0	 1	    1.00000	    0.00000	 63.0	 1	    1.07937	    0.92063;
	17	 1	 11.20	 -0.60	 0.0	 0.0	 1	    1.02222	    0.00000	 90.0	 1	    1.06667	    0.97778;
	18	 1	 0.0	 0.0	 0.0	 0.0	 1	    0.94444	    0.00000	 45.0	 1	    1.00000	    0.88889;
	19	 1	 1.00	 0.00	 0.0	 0.0	 1	    1.00000	    0.00000	 63.0	 1	    1.06349	    0.93651;
	20	 1	 2.30	 -18.30	 0.0	 0.0	 1	    0.94444	    0.00000	 45.0	 1	    1.00000	    0.88889;
	21	 1	 6.50	 -1.90	 0.0	 0.0	 1	    1.02222	    0.00000	 90.0	 1	    1.06667	    0.97778;
	22	 1	 18.29	 1.40	 0.0	 0.0	 1	    1.01588	    0.00000	 63.0	 1	    1.07937	    0.95238;
	23	 1	 35.02	 4.60	 0.0	 0.0	 1	    1.00000	    0.00000	 63.0	 1	    1.06349	    0.93651;
	24	 1	 9.70	 -2.80	 0.0	 0.0	 1	    1.03333	    0.00000	 90.0	 1	    1.11111	    0.95556;
	25	 1	 46.50	 -6.10	 0.0	 0.0	 1	    1.02222	    0.00000	 90.0	 1	    1.10000	    0.94444;
	26	 1	 24.67	 4.70	 0.0	 0.0	 1	    1.02222	    0.00000	 90.0	 1	    1.06667	    0.97778;
	27	 1	 0.0	 0.0	 0.0	 0.0	 1	    1.04444	    0.00000	 225.0	 1	    1.08444	    1.00444;
	28	 1	 0.48	 0.90	 0.0	 0.0	 1	    1.01588	    0.00000	 63.0	 1	    1.07937	    0.95238;
	29	 1	 63.42	 1.80	 0.0	 0.0	 1	    1.01587	    0.00000	 63.0	 1	    1.06349	    0.96825;
	30	 1	 29.80	 -1.90	 0.0	 0.0	 1	    1.01111	    0.00000	 90.0	 1	    1.08889	    0.93333;
	31	 1	 0.0	 0.0	 0.0	 0.0	 1	    1.00000	    0.00000	 63.0	 1	    1.06349	    0.93651;
	32	 1	 0.0	 0.0	 0.0	 0.0	 1	    1.00334	    0.00000	 150.0	 1	    1.10667	    0.90000;
	33	 1	 0.0	 0.0	 0.0	 0.0	 1	    1.01111	    0.00000	 225.0	 1	    1.08889	    0.93333;
	34	 1	 0.0	 0.0	 0.0	 0.0	 1	    1.01111	    0.00000	 225.0	 1	    1.08889	    0.93333;
	35	 1	 0.0	 0.0	 0.0	 0.0	 1	    1.07237	    0.00000	 380.0	 1	    1.10526	    1.03947;
	36	 1	 0.0	 0.0	 0.0	 0.0	 1	    1.07237	    0.00000	 380.0	 1	    1.10526	    1.03947;
	37	 1	 2.77	 4.40	 0.0	 0.0	 1	    1.00000	    0.00000	 63.0	 1	    1.07937	    0.92063;
	38	 1	 7.00	 -1.00	 0.0	 0.0	 1	    1.01587	    0.00000	 63.0	 1	    1.09524	    0.93651;
	39	 1	 35.00	 -6.80	 0.0	 0.0	 1	    1.02778	    0.00000	 90.0	 1	    1.07778	    0.97778;
	40	 1	 38.15	 0.50	 0.0	 0.0	 1	    1.02778	    0.00000	 90.0	 1	    1.07778	    0.97778;
	41	 1	 0.0	 0.0	 0.0	 0.0	 1	    1.04819	    0.00000	 225.0	 1	    1.09194	    1.00444;
	42	 1	 0.0	 0.0	 0.0	 0.0	 1	    1.04150	    0.00000	 63.0	 1	    1.13061	    0.95238;
	43	 1	 4.09	 2.80	 0.0	 0.0	 1	    1.02778	    0.00000	 90.0	 1	    1.07778	    0.97778;
	44	 1	 12.40	 0.00	 0.0	 0.0	 1	    1.00794	    0.00000	 63.0	 1	    1.06349	    0.95238;
	45	 1	 3.61	 2.10	 0.0	 0.0	 1	    1.02222	    0.00000	 90.0	 1	    1.06667	    0.97778;
	46	 1	 0.0	 0.0	 0.0	 0.0	 1	    1.00000	    0.00000	 63.0	 1	    1.06349	    0.93651;
	47	 2	 0.0	 0.0	 0.0	 0.0	 1	    1.00000	    0.00000	 63.0	 1	    1.06349	    0.93651;
	48	 1	 40.92	 1.30	 0.0	 0.0	 1	    1.00000	    0.00000	 90.0	 1	    1.07778	    0.92222;
	49	 1	 6.90	 -2.50	 0.0	 0.0	 1	    1.00000	    0.00000	 63.0	 1	    1.06349	    0.93651;
	50	 1	 0.0	 0.0	 0.0	 0.0	 1	    1.00543	    0.00000	 63.0	 1	    1.07436	    0.93651;
	51	 1	 0.0	 0.0	 0.0	 0.0	 1	    1.01111	    0.00000	 225.0	 1	    1.08889	    0.93333;
	52	 1	 6.98	 2.50	 0.0	 0.0	 1	    1.02222	    0.00000	 90.0	 1	    1.06667	    0.97778;
	53	 1	 0.20	 -0.30	 0.0	 0.0	 1	    1.00000	    0.00000	 63.0	 1	    1.04762	    0.95238;
	54	 1	 0.90	 -0.80	 0.0	 0.0	 1	    1.02222	    0.00000	 90.0	 1	    1.06667	    0.97778;
	55	 1	 36.22	 5.40	 0.0	 0.0	 1	    1.04666	    0.00000	 225.0	 1	    1.08889	    1.00444;
	56	 1	 50.79	 6.30	 0.0	 0.0	 1	    1.04666	    0.00000	 225.0	 1	    1.08889	    1.00444;
	57	 2	 0.0	 0.0	 0.0	 0.0	 1	    1.00000	    0.00000	 63.0	 1	    1.07937	    0.92063;
	58	 1	 129.49	 28.80	 0.0	 0.0	 1	    1.04666	    0.00000	 225.0	 1	    1.08889	    1.00444;
	59	 1	 6.26	 1.40	 0.0	 0.0	 1	    1.01588	    0.00000	 63.0	 1	    1.07937	    0.95238;
	60	 1	 0.0	 0.0	 0.0	 0.0	 1	    1.01588	    0.00000	 63.0	 1	    1.07937	    0.95238;
	61	 1	 35.62	 5.10	 0.0	 0.0	 1	    1.01588	    0.00000	 63.0	 1	    1.07937	    0.95238;
	62	 1	 0.0	 0.0	 0.0	 0.0	 1	    1.01588	    0.00000	 63.0	 1	    1.07937	    0.95238;
	63	 1	 15.40	 2.00	 0.0	 0.0	 1	    1.01588	    0.00000	 63.0	 1	    1.07937	    0.95238;
	64	 1	 47.20	 -0.70	 0.0	 0.0	 1	    0.98889	    0.00000	 225.0	 1	    1.08889	    0.88889;
	65	 1	 12.03	 2.90	 0.0	 0.0	 1	    1.01588	    0.00000	 63.0	 1	    1.07937	    0.95238;
	66	 1	 11.10	 -9.30	 0.0	 0.0	 1	    1.00000	    0.00000	 63.0	 1	    1.06349	    0.93651;
	67	 1	 0.0	 0.0	 0.0	 0.0	 1	    1.00000	    0.00000	 63.0	 1	    1.07937	    0.92063;
	68	 1	 41.10	 -6.80	 0.0	 0.0	 1	    1.00000	    0.00000	 63.0	 1	    1.06349	    0.93651;
	69	 1	 14.40	 -3.20	 0.0	 0.0	 1	    1.00794	    0.00000	 63.0	 1	    1.06349	    0.95238;
	70	 1	 10.47	 0.60	 0.0	 0.0	 1	    1.01588	    0.00000	 63.0	 1	    1.07937	    0.95238;
	71	 1	 67.15	 10.70	 0.0	 0.0	 1	    1.00000	    0.00000	 63.0	 1	    1.04762	    0.95238;
	72	 1	 0.0	 0.0	 0.0	 0.0	 1	    1.04666	    0.00000	 225.0	 1	    1.08889	    1.00444;
	73	 1	 0.0	 0.0	 0.0	 0.0	 1	    1.04666	    0.00000	 225.0	 1	    1.08889	    1.00444;
	74	 1	 37.10	 -8.70	 0.0	 0.0	 1	    0.98889	    0.00000	 225.0	 1	    1.08889	    0.88889;
	75	 1	 23.23	 1.40	 0.0	 0.0	 1	    1.02301	    0.00000	 90.0	 1	    1.06825	    0.97778;
	76	 1	 7.58	 3.20	 0.0	 0.0	 1	    1.03778	    0.00000	 225.0	 1	    1.08889	    0.98667;
	77	 1	 28.90	 -5.20	 0.0	 0.0	 1	    1.00000	    0.00000	 63.0	 1	    1.06349	    0.93651;
	78	 1	 0.0	 0.0	 0.0	 0.0	 1	    1.00000	    0.00000	 63.0	 1	    1.07937	    0.92063;
	79	 1	 0.0	 0.0	 0.0	 0.0	 1	    1.00000	    0.00000	 63.0	 1	    1.04762	    0.95238;
	80	 1	 26.10	 -1.00	 0.0	 0.0	 1	    1.04666	    0.00000	 225.0	 1	    1.08889	    1.00444;
	81	 1	 31.41	 3.50	 0.0	 0.0	 1	    1.04666	    0.00000	 225.0	 1	    1.08889	    1.00444;
	82	 1	 9.80	 -3.20	 0.0	 0.0	 1	    1.00000	    0.00000	 63.0	 1	    1.06349	    0.93651;
	83	 1	 102.29	 46.20	 0.0	 0.0	 1	    1.04666	    0.00000	 225.0	 1	    1.08889	    1.00444;
	84	 1	 -1.00	 -1.10	 0.0	 0.0	 1	    1.00000	    0.00000	 63.0	 1	    1.06349	    0.93651;
	85	 1	 2.30	 -0.80	 0.0	 0.0	 1	    1.00000	    0.00000	 63.0	 1	    1.06349	    0.93651;
	86	 1	 30.30	 -3.70	 0.0	 0.0	 1	    1.02222	    0.00000	 90.0	 1	    1.06667	    0.97778;
	87	 1	 0.0	 0.0	 0.0	 0.0	 1	    1.01588	    0.00000	 63.0	 1	    1.07937	    0.95238;
	88	 1	 11.50	 -3.80	 0.0	 0.0	 1	    1.00000	    0.00000	 63.0	 1	    1.06349	    0.93651;
	89	 1	 17.70	 -4.90	 0.0	 0.0	 1	    1.02778	    0.00000	 90.0	 1	    1.07778	    0.97778;
	90	 1	 0.70	 -0.30	 0.0	 0.0	 1	    0.94444	    0.00000	 45.0	 1	    1.00000	    0.88889;
	91	 1	 0.0	 0.0	 0.0	 0.0	 1	    0.94444	    0.00000	 45.0	 1	    1.00000	    0.88889;
	92	 1	 29.73	 0.40	 0.0	 0.0	 1	    1.01587	    0.00000	 63.0	 1	    1.06349	    0.96825;
	93	 1	 2.30	 -2.50	 0.0	 0.0	 1	    0.94444	    0.00000	 45.0	 1	    1.00000	    0.88889;
	94	 1	 13.00	 -4.90	 0.0	 0.0	 1	    1.02222	    0.00000	 90.0	 1	    1.06667	    0.97778;
	95	 1	 45.73	 3.80	 0.0	 0.0	 1	    1.02222	    0.00000	 90.0	 1	    1.06667	    0.97778;
	96	 1	 0.90	 -0.60	 0.0	 0.0	 1	    1.00000	    0.00000	 63.0	 1	    1.06349	    0.93651;
	97	 1	 56.56	 0.80	 0.0	 0.0	 1	    1.00000	    0.00000	 63.0	 1	    1.07937	    0.92063;
	98	 1	 6.60	 -2.20	 0.0	 0.0	 1	    1.01588	    0.00000	 63.0	 1	    1.07937	    0.95238;
	99	 1	 26.36	 3.20	 0.0	 0.0	 1	    1.01588	    0.00000	 63.0	 1	    1.07937	    0.95238;
	100	 1	 55.72	 7.40	 0.0	 0.0	 1	    1.00000	    0.00000	 63.0	 1	    1.06349	    0.93651;
	101	 1	 14.00	 -1.50	 0.0	 0.0	 1	    1.00000	    0.00000	 63.0	 1	    1.06349	    0.93651;
	102	 2	 0.0	 0.0	 0.0	 0.0	 1	    1.01588	    0.00000	 63.0	 1	    1.07937	    0.95238;
	103	 1	 13.20	 -4.00	 0.0	 0.0	 1	    1.01588	    0.00000	 63.0	 1	    1.07937	    0.95238;
	104	 1	 0.0	 0.0	 0.0	 0.0	 1	    1.03778	    0.00000	 225.0	 1	    1.08889	    0.98667;
	105	 1	 28.50	 -1.60	 0.0	 0.0	 1	    0.98889	    0.00000	 225.0	 1	    1.08889	    0.88889;
	106	 1	 46.69	 2.20	 0.0	 0.0	 1	    1.02222	    0.00000	 90.0	 1	    1.10000	    0.94444;
	107	 1	 86.17	 4.90	 0.0	 0.0	 1	    1.04666	    0.00000	 225.0	 1	    1.08444	    1.00889;
	108	 1	 7.90	 -4.60	 0.0	 0.0	 1	    1.02778	    0.00000	 90.0	 1	    1.07778	    0.97778;
	109	 1	 72.93	 7.80	 0.0	 0.0	 1	    1.00000	    0.00000	 63.0	 1	    1.06349	    0.93651;
	110	 1	 0.0	 0.0	 0.0	 0.0	 1	    1.01111	    0.00000	 225.0	 1	    1.08889	    0.93333;
	111	 1	 34.20	 -7.20	 0.0	 0.0	 1	    1.01587	    0.00000	 63.0	 1	    1.06349	    0.96825;
	112	 1	 0.0	 0.0	 0.0	 0.0	 1	    1.00000	    0.00000	 63.0	 1	    1.04762	    0.95238;
	113	 1	 0.0	 0.0	 0.0	 0.0	 1	    1.04666	    0.00000	 225.0	 1	    1.08889	    1.00444;
	114	 1	 11.50	 -1.00	 0.0	 0.0	 1	    1.00000	    0.00000	 63.0	 1	    1.06349	    0.93651;
	115	 1	 0.0	 0.0	 0.0	 0.0	 1	    1.07805	    0.00000	 380.0	 1	    1.10526	    1.05085;
	116	 1	 0.0	 0.0	 0.0	 0.0	 1	    1.07805	    0.00000	 380.0	 1	    1.10526	    1.05085;
	117	 1	 13.20	 -2.20	 0.0	 0.0	 1	    1.01588	    0.00000	 63.0	 1	    1.07937	    0.95238;
	118	 1	 2.41	 0.80	 0.0	 0.0	 1	    1.02395	    0.00000	 90.0	 1	    1.07012	    0.97778;
	119	 1	 42.72	 0.70	 0.0	 0.0	 1	    1.00000	    0.00000	 63.0	 1	    1.06349	    0.93651;
	120	 1	 29.90	 -1.30	 0.0	 0.0	 1	    1.00000	    0.00000	 63.0	 1	    1.06349	    0.93651;
	121	 1	 18.41	 3.70	 0.0	 0.0	 1	    1.00000	    0.00000	 63.0	 1	    1.07937	    0.92063;
	122	 2	 0.0	 0.0	 0.0	 0.0	 1	    1.01588	    0.00000	 63.0	 1	    1.07937	    0.95238;
	123	 1	 10.83	 2.70	 0.0	 0.0	 1	    1.01588	    0.00000	 63.0	 1	    1.07937	    0.95238;
	124	 1	 8.90	 -4.00	 0.0	 0.0	 1	    1.02222	    0.00000	 90.0	 1	    1.06667	    0.97778;
	125	 1	 4.80	 -3.10	 0.0	 0.0	 1	    1.01588	    0.00000	 63.0	 1	    1.07937	    0.95238;
	126	 1	 -0.30	 0.50	 0.0	 0.0	 1	    1.00000	    0.00000	 63.0	 1	    1.06349	    0.93651;
	127	 1	 7.82	 0.40	 0.0	 0.0	 1	    1.00000	    0.00000	 63.0	 1	    1.04762	    0.95238;
	128	 1	 16.73	 5.60	 0.0	 0.0	 1	    1.01587	    0.00000	 63.0	 1	    1.06349	    0.96825;
	129	 1	 22.62	 14.30	 0.0	 0.0	 1	    1.01587	    0.00000	 63.0	 1	    1.06349	    0.96825;
	130	 1	 0.0	 0.0	 0.0	 0.0	 1	    1.04666	    0.00000	 225.0	 1	    1.08444	    1.00889;
	131	 1	 98.68	 2.00	 0.0	 0.0	 1	    1.04666	    0.00000	 225.0	 1	    1.08444	    1.00889;
	132	 2	 11.90	 0.00	 0.0	 0.0	 1	    1.00000	    0.00000	 90.0	 1	    1.07778	    0.92222;
	133	 1	 1.56	 0.30	 0.0	 0.0	 1	    1.00000	    0.00000	 63.0	 1	    1.04762	    0.95238;
	134	 1	 86.29	 15.70	 0.0	 0.0	 1	    1.04666	    0.00000	 225.0	 1	    1.08889	    1.00444;
	135	 1	 0.0	 0.0	 0.0	 0.0	 1	    1.04666	    0.00000	 225.0	 1	    1.08889	    1.00444;
	136	 1	 22.62	 2.30	 0.0	 0.0	 1	    1.02778	    0.00000	 90.0	 1	    1.07778	    0.97778;
	137	 2	 13.40	 -9.10	 0.0	 0.0	 1	    1.01587	    0.00000	 63.0	 1	    1.06349	    0.96825;
	138	 1	 0.0	 0.0	 0.0	 0.0	 1	    1.02333	    0.00000	 150.0	 1	    1.08000	    0.96667;
	139	 1	 8.60	 -1.00	 0.0	 0.0	 1	    1.00000	    0.00000	 63.0	 1	    1.07937	    0.92063;
	140	 1	 0.0	 0.0	 0.0	 0.0	 1	    1.04445	    0.00000	 225.0	 1	    1.08889	    1.00000;
	141	 1	 0.0	 0.0	 0.0	 0.0	 1	    1.07895	    0.00000	 380.0	 1	    1.10526	    1.05263;
	142	 1	 19.01	 1.30	 0.0	 0.0	 1	    1.01588	    0.00000	 63.0	 1	    1.07937	    0.95238;
	143	 1	 0.0	 0.0	 0.0	 0.0	 1	    1.03778	    0.00000	 225.0	 1	    1.08889	    0.98667;
	144	 1	 0.0	 0.0	 0.0	 -64.0	 1	    0.97500	    0.00000	 20.0	 1	    1.15000	    0.80000;
	145	 1	 25.51	 10.00	 0.0	 0.0	 1	    1.03333	    0.00000	 90.0	 1	    1.11111	    0.95556;
	146	 1	 30.81	 6.20	 0.0	 0.0	 1	    1.02889	    0.00000	 225.0	 1	    1.08889	    0.96889;
	147	 1	 0.0	 0.0	 0.0	 0.0	 1	    1.05263	    0.00000	 380.0	 1	    1.10526	    1.00000;
	148	 1	 30.09	 3.60	 0.0	 0.0	 1	    1.00000	    0.00000	 63.0	 1	    1.06349	    0.93651;
	149	 1	 7.58	 2.20	 0.0	 0.0	 1	    1.00000	    0.00000	 63.0	 1	    1.06349	    0.93651;
	150	 1	 21.54	 5.10	 0.0	 0.0	 1	    1.02222	    0.00000	 90.0	 1	    1.06667	    0.97778;
	151	 1	 50.42	 5.60	 0.0	 0.0	 1	    1.00000	    0.00000	 63.0	 1	    1.06349	    0.93651;
	152	 1	 0.0	 0.0	 0.0	 0.0	 1	    1.01587	    0.00000	 63.0	 1	    1.06349	    0.96825;
	153	 1	 41.16	 5.90	 0.0	 7.7	 1	    1.01587	    0.00000	 63.0	 1	    1.06349	    0.96825;
	154	 1	 24.55	 0.60	 0.0	 0.0	 1	    1.00000	    0.00000	 63.0	 1	    1.06349	    0.93651;
	155	 1	 0.0	 0.0	 0.0	 0.0	 1	    1.01111	    0.00000	 225.0	 1	    1.08889	    0.93333;
	156	 2	 0.0	 0.0	 0.0	 0.0	 1	    1.00000	    0.00000	 63.0	 1	    1.07937	    0.92063;
	157	 1	 0.0	 0.0	 0.0	 0.0	 1	    1.01587	    0.00000	 63.0	 1	    1.06349	    0.96825;
	158	 1	 -0.10	 -2.10	 0.0	 0.0	 1	    0.94444	    0.00000	 45.0	 1	    1.00000	    0.88889;
	159	 2	 0.0	 0.0	 0.0	 0.0	 1	    0.94444	    0.00000	 45.0	 1	    1.00000	    0.88889;
	160	 1	 0.0	 0.0	 0.0	 0.0	 1	    1.00000	    0.00000	 63.0	 1	    1.06349	    0.93651;
	161	 1	 35.50	 2.30	 0.0	 0.0	 1	    0.98889	    0.00000	 225.0	 1	    1.08889	    0.88889;
	162	 1	 37.91	 7.40	 0.0	 0.0	 1	    0.98889	    0.00000	 225.0	 1	    1.08889	    0.88889;
	163	 1	 0.40	 -1.60	 0.0	 0.0	 1	    1.02222	    0.00000	 90.0	 1	    1.06667	    0.97778;
	164	 1	 0.0	 0.0	 0.0	 0.0	 1	    1.01588	    0.00000	 63.0	 1	    1.07937	    0.95238;
	165	 1	 0.0	 0.0	 0.0	 0.0	 1	    1.01588	    0.00000	 63.0	 1	    1.07937	    0.95238;
	166	 1	 11.30	 -3.90	 0.0	 0.0	 1	    0.97500	    0.00000	 20.0	 1	    1.15000	    0.80000;
	167	 1	 6.98	 1.40	 0.0	 0.0	 1	    1.02222	    0.00000	 90.0	 1	    1.06667	    0.97778;
	168	 1	 7.80	 -0.90	 0.0	 0.0	 1	    1.02222	    0.00000	 90.0	 1	    1.06667	    0.97778;
	169	 1	 0.0	 0.0	 0.0	 0.0	 1	    1.04543	    0.00000	 225.0	 1	    1.08642	    1.00444;
	170	 1	 9.10	 -1.10	 0.0	 0.0	 1	    1.02222	    0.00000	 90.0	 1	    1.06667	    0.97778;
	171	 1	 72.21	 6.10	 0.0	 0.0	 1	    1.02778	    0.00000	 90.0	 1	    1.07778	    0.97778;
	172	 1	 21.40	 -1.80	 0.0	 0.0	 1	    1.02778	    0.00000	 90.0	 1	    1.07778	    0.97778;
	173	 1	 0.0	 0.0	 0.0	 0.0	 1	    1.04666	    0.00000	 225.0	 1	    1.08889	    1.00444;
	174	 1	 32.01	 6.60	 0.0	 0.0	 1	    1.01111	    0.00000	 90.0	 1	    1.08889	    0.93333;
	175	 1	 35.70	 -1.50	 0.0	 0.0	 1	    1.03333	    0.00000	 90.0	 1	    1.11111	    0.95556;
	176	 1	 0.0	 0.0	 0.0	 0.0	 1	    1.00000	    0.00000	 63.0	 1	    1.07937	    0.92063;
	177	 1	 0.0	 0.0	 0.0	 0.0	 1	    1.00000	    0.00000	 63.0	 1	    1.07937	    0.92063;
	178	 2	 0.0	 0.0	 0.0	 0.0	 1	    1.00000	    0.00000	 150.0	 1	    1.10000	    0.90000;
	179	 1	 0.0	 0.0	 0.0	 0.0	 1	    1.04666	    0.00000	 225.0	 1	    1.08889	    1.00444;
	180	 1	 0.0	 0.0	 0.0	 0.0	 1	    1.04666	    0.00000	 225.0	 1	    1.08889	    1.00444;
	181	 1	 0.0	 0.0	 0.0	 -32.0	 1	    0.97500	    0.00000	 20.0	 1	    1.15000	    0.80000;
	182	 1	 0.0	 0.0	 0.0	 -32.0	 1	    0.97500	    0.00000	 20.0	 1	    1.15000	    0.80000;
	183	 1	 0.0	 0.0	 0.0	 0.0	 1	    1.00000	    0.00000	 63.0	 1	    1.04762	    0.95238;
	184	 1	 0.0	 0.0	 0.0	 -80.0	 1	    1.04666	    0.00000	 225.0	 1	    1.08889	    1.00444;
	185	 1	 12.10	 -5.90	 0.0	 0.0	 1	    1.00000	    0.00000	 63.0	 1	    1.07937	    0.92063;
	186	 1	 19.26	 3.10	 0.0	 0.0	 1	    1.00000	    0.00000	 63.0	 1	    1.06349	    0.93651;
	187	 1	 6.50	 0.30	 0.0	 0.0	 1	    1.01588	    0.00000	 63.0	 1	    1.07937	    0.95238;
	188	 1	 3.61	 0.40	 0.0	 0.0	 1	    1.02778	    0.00000	 90.0	 1	    1.07778	    0.97778;
	189	 1	 26.36	 2.40	 0.0	 0.0	 1	    1.01588	    0.00000	 63.0	 1	    1.07937	    0.95238;
	190	 1	 1.40	 -0.70	 0.0	 0.0	 1	    1.02222	    0.00000	 90.0	 1	    1.06667	    0.97778;
	191	 2	 0.0	 0.0	 0.0	 0.0	 1	    1.00000	    0.00000	 63.0	 1	    1.07937	    0.92063;
	192	 1	 15.04	 1.10	 0.0	 0.0	 1	    1.00000	    0.00000	 63.0	 1	    1.07937	    0.92063;
	193	 2	 0.0	 0.0	 0.0	 0.0	 1	    0.94444	    0.00000	 45.0	 1	    1.00000	    0.88889;
	194	 1	 12.70	 -1.30	 0.0	 0.0	 1	    1.02222	    0.00000	 90.0	 1	    1.06667	    0.97778;
	195	 1	 7.30	 -1.40	 0.0	 0.0	 1	    1.00000	    0.00000	 63.0	 1	    1.07937	    0.92063;
	196	 1	 9.27	 5.30	 0.0	 0.0	 1	    1.04666	    0.00000	 225.0	 1	    1.08889	    1.00444;
	197	 2	 1.40	 -3.20	 0.0	 0.0	 1	    1.00000	    0.00000	 63.0	 1	    1.07937	    0.92063;
	198	 1	 0.0	 0.0	 0.0	 0.0	 1	    1.02491	    0.00000	 63.0	 1	    1.09743	    0.95238;
	199	 1	 0.0	 0.0	 0.0	 0.0	 1	    1.02491	    0.00000	 63.0	 1	    1.09743	    0.95238;
	200	 1	 25.00	 -4.90	 0.0	 0.0	 1	    1.00000	    0.00000	 63.0	 1	    1.07937	    0.92063;
...
];

%% generator data
%	bus	Pg	Qg	Qmax	Qmin	Vg	mBase	status	Pmax	Pmin
mpc.gen = [
	4	 0.0	 0.0	 223.0	 -223.0	 1.01111	 100.0	 0	 446	 0.0; % COW
	4	 0.0	 0.0	 6.0	 -6.0	 1.01111	 100.0	 0	 11	 0.0; % NG
	5	 0.0	 0.0	 30.0	 -30.0	 1.00794	 100.0	 0	 59	 0.0; % NG
	11	 0.0	 0.0	 38.0	 -38.0	 1.0	 100.0	 0	 76	 0.0; % NG
	11	 0.0	 0.0	 2.0	 -2.0	 1.0	 100.0	 0	 4	 0.0; % PEL
	17	 0.0	 0.0	 35.0	 -35.0	 1.02222	 100.0	 0	 69	 0.0; % COW
	19	 0.0	 0.0	 3.0	 -3.0	 1.0	 100.0	 0	 5	 0.0; % PEL
	22	 0.0	 0.0	 84.0	 -84.0	 1.01588	 100.0	 0	 167	 0.0; % NG
	24	 0.0	 0.0	 18.0	 -18.0	 1.03333	 100.0	 0	 36	 0.0; % PEL
	24	 0.0	 0.0	 39.0	 -39.0	 1.03333	 100.0	 0	 78	 0.0; % PEL
	25	 0.0	 0.0	 128.0	 -128.0	 1.02222	 100.0	 0	 255	 0.0; % NG
	25	 0.0	 0.0	 68.0	 -68.0	 1.02222	 100.0	 0	 136	 0.0; % NG
	40	 0.0	 0.0	 17.0	 -17.0	 1.02778	 100.0	 0	 34	 0.0; % NG
	47	 0.0	 -3.11	 9.5	 -9.5	 1.0	 100.0	 0	 9	 0.0; % NG
	47	 0.0	 -3.11	 23.0	 -23.0	 1.0	 100.0	 0	 45	 0.0; % PEL
	48	 0.0	 0.0	 46.0	 -46.0	 1.0	 100.0	 0	 92	 0.0; % PEL
	48	 0.0	 0.0	 88.0	 -88.0	 1.0	 100.0	 0	 175	 0.0; % NG
	57	 67.5	 0.0	 68.0	 -68.0	 1.0	 100.0	 1	 135	 0.0; % COW
	64	 0.0	 0.0	 29.0	 -29.0	 0.98889	 100.0	 0	 57	 0.0; % NG
	64	 0.0	 0.0	 8.0	 -8.0	 0.98889	 100.0	 0	 16	 0.0; % NG
	69	 82.0	 0.0	 82.0	 -82.0	 1.00794	 100.0	 1	 164	 0.0; % NG
	70	 0.0	 0.0	 240.0	 -240.0	 1.01588	 100.0	 0	 479	 0.0; % COW
	85	 0.0	 0.0	 38.0	 -38.0	 1.0	 100.0	 0	 75	 0.0; % PEL
	86	 0.0	 0.0	 79.0	 -79.0	 1.02222	 100.0	 0	 157	 0.0; % NG
	102	 187.0	 0.0	 230.4	 -230.4	 1.01588	 100.0	 1	 374	 0.0; % NG
	122	 0.0	 -0.8	 7.0	 -7.0	 1.01588	 100.0	 0	 13	 0.0; % NG
	124	 0.0	 0.0	 174.0	 -174.0	 1.02222	 100.0	 0	 347	 0.0; % COW
	125	 25.5	 0.0	 26.0	 -26.0	 1.01588	 100.0	 1	 51	 0.0; % PEL
	125	 0.0	 0.0	 21.0	 -21.0	 1.01588	 100.0	 0	 41	 0.0; % NG
	132	 0.0	 0.75	 39.0	 -39.0	 1.0	 100.0	 0	 78	 0.0; % NG
	132	 0.0	 0.75	 53.0	 -53.0	 1.0	 100.0	 0	 106	 0.0; % PEL
	132	 0.0	 0.75	 41.0	 -41.0	 1.0	 100.0	 0	 81	 0.0; % COW
	132	 0.0	 0.75	 39.0	 -39.0	 1.0	 100.0	 0	 78	 0.0; % NG
	137	 0.0	 -0.8	 15.0	 -15.0	 1.01587	 100.0	 0	 30	 0.0; % NG
	137	 0.0	 -0.8	 6.0	 -6.0	 1.01587	 100.0	 0	 12	 0.0; % PEL
	156	 0.0	 1.5	 28.0	 -28.0	 1.0	 100.0	 0	 55	 0.0; % NG
	159	 0.0	 1.1	 10.0	 -13.0	 0.94444	 100.0	 0	 10	 0.0; % PEL
	159	 0.0	 -1.9	 16.0	 -16.0	 0.94444	 100.0	 0	 31	 0.0; % NG
	178	 0.0	 -1.31	 66.0	 -66.0	 1.0	 100.0	 0	 131	 0.0; % PEL
	191	 0.0	 -0.09	 15.0	 -15.0	 1.0	 100.0	 0	 29	 0.0; % NG
	191	 0.0	 -0.09	 27.0	 -27.0	 1.0	 100.0	 0	 53	 0.0; % NG
	193	 0.0	 -2.64	 79.0	 -79.0	 0.94444	 100.0	 0	 158	 0.0; % NG
	195	 0.0	 0.0	 10.0	 -10.0	 1.0	 100.0	 0	 20	 0.0; % NG
	197	 28.5	 0.0	 29.0	 -29.0	 1.0	 100.0	 1	 57	 0.0; % NG
	197	 98.5	 0.0	 99.0	 -99.0	 1.0	 100.0	 1	 197	 0.0; % COW
	220	 0.0	 0.0	 39.0	 -39.0	 1.02222	 100.0	 0	 78	 0.0; % COW
	227	 0.0	 0.0	 16.0	 -16.0	 1.0	 100.0	 0	 31	 0.0; % NG
	230	 0.0	 0.0	 5.0	 -5.0	 1.00794	 100.0	 0	 10	 0.0; % PEL
	239	 0.0	 0.0	 115.0	 -115.0	 1.0	 100.0	 0	 230	 0.0; % NG
	239	 0.0	 0.0	 5.0	 -5.0	 1.0	 100.0	 0	 9	 0.0; % NG
	241	 0.0	 0.0	 0.0	 0.0	 1.02222	 100.0	 0	 0	 0.0; % NG
	241	 0.0	 0.0	 2.0	 -2.0	 1.02222	 100.0	 0	 4	 0.0; % NG
	249	 0.0	 0.0	 68.0	 -68.0	 1.0	 100.0	 0	 136	 0.0; % NG
	249	 0.0	 -2.59	 92.0	 -92.0	 1.0	 100.0	 0	 183	 0.0; % NG
	249	 0.0	 -2.59	 25.0	 -25.0	 1.0	 100.0	 0	 50	 0.0; % PEL
	249	 0.0	 -2.59	 10.0	 -10.0	 1.0	 100.0	 0	 15	 0.0; % PEL
	259	 0.0	 3.48	 97.0	 -97.0	 1.0	 100.0	 0	 193	 0.0; % NG
	259	 0.0	 2.51	 16.0	 -16.0	 1.0	 100.0	 0	 32	 0.0; % NG
	261	 0.0	 0.0	 10.0	 -10.0	 1.0	 100.0	 0	 20	 0.0; % PEL
	264	 0.0	 4.0	 17.0	 -17.0	 1.0	 100.0	 0	 33	 0.0; % NG
	272	 0.0	 0.0	 36.0	 -36.0	 1.0	 100.0	 0	 71	 0.0; % NG
	285	 0.0	 -2.62	 54.0	 -54.0	 1.0	 100.0	 0	 107	 0.0; % NG
	298	 0.0	 0.0	 10.0	 -10.0	 0.98889	 100.0	 0	 19	 0.0; % PEL
	299	 0.0	 0.0	 28.0	 -28.0	 1.01588	 100.0	 0	 55	 0.0; % NG
	308	 0.0	 -6.7	 144.0	 -144.0	 1.0	 100.0	 0	 287	 0.0; % COW
	315	 62.5	 0.0	 63.0	 -63.0	 1.0	 100.0	 1	 125	 0.0; % PEL
	315	 72.0	 0.0	 72.0	 -72.0	 1.0	 100.0	 1	 144	 0.0; % NG
	320	 0.0	 0.0	 0.0	 0.0	 1.0	 100.0	 0	 0	 -7.0; % SYNC
	320	 0.0	 0.0	 0.0	 0.0	 1.0	 100.0	 0	 0	 -7.0; % SYNC
	322	 0.0	 0.1	 57.0	 -57.0	 1.0	 100.0	 0	 114	 0.0; % NG
	328	 0.0	 -0.23	 155.0	 -155.0	 1.0	 100.0	 0	 310	 0.0; % NG
	335	 0.0	 2.42	 13.0	 -11.0	 1.01587	 100.0	 0	 21	 0.0; % PEL
	336	 0.0	 4.48	 22.0	 -22.0	 1.02333	 100.0	 0	 44	 0.0; % NG
	339	 0.0	 2.68	 5.0	 -6.0	 1.0	 100.0	 0	 3	 0.0; % NG
	341	 0.0	 1.05	 40.0	 -40.0	 1.0	 100.0	 0	 80	 0.0; % NG
	341	 0.0	 0.1	 2.0	 -2.0	 1.0	 100.0	 0	 4	 0.0; % PEL
	348	 0.0	 0.0	 11.0	 -11.0	 1.02778	 100.0	 0	 21	 0.0; % PEL
	348	 127.0	 0.0	 127.0	 -127.0	 1.02778	 100.0	 1	 254	 0.0; % NG
	351	 0.0	 0.0	 65.0	 -65.0	 1.02222	 100.0	 0	 129	 0.0; % NG
	359	 0.0	 9.21	 32.0	 -32.0	 1.0	 100.0	 0	 64	 0.0; % PEL
	360	 0.0	 0.0	 79.0	 -79.0	 1.01588	 100.0	 0	 158	 0.0; % NG
	360	 0.0	 0.0	 1.0	 -1.0	 1.01588	 100.0	 0	 1	 0.0; % NG
	367	 390.0	 0.0	 390.0	 -390.0	 1.04666	 100.0	 1	 780	 0.0; % NG
	394	 0.0	 0.0	 8.0	 -8.0	 1.0	 100.0	 0	 16	 0.0; % PEL
	413	 0.0	 0.0	 31.0	 -31.0	 1.02222	 100.0	 0	 61	 0.0; % NG
	413	 0.0	 0.0	 74.0	 -74.0	 1.02222	 100.0	 0	 147	 0.0; % NG
	433	 0.0	 0.0	 211.0	 -211.0	 1.0	 100.0	 0	 422	 0.0; % COW
	442	 0.0	 5.39	 235.0	 -235.0	 1.0	 100.0	 0	 470	 0.0; % COW
	449	 0.0	 -0.57	 8.0	 -9.0	 1.01587	 100.0	 0	 3	 0.0; % PEL
	465	 0.0	 0.0	 33.0	 -33.0	 1.00794	 100.0	 0	 66	 0.0; % PEL
	465	 0.0	 0.0	 8.0	 -8.0	 1.00794	 100.0	 0	 15	 0.0; % NG
	467	 30.75	 0.0	 31.0	 -31.0	 0.985	 100.0	 1	 61	 0.5; % NG
	467	 22.75	 0.0	 23.0	 -23.0	 0.985	 100.0	 1	 45	 0.5; % PEL
	469	 199.75	 0.0	 200.0	 -200.0	 1.00794	 100.0	 1	 399	 0.5; % PEL
	473	 0.0	 -3.72	 6.0	 -6.0	 1.0	 100.0	 0	 2	 0.0; % NG
	473	 0.0	 -5.4	 42.0	 -42.0	 1.0	 100.0	 0	 83	 0.0; % NG
	482	 0.0	 -2.21	 144.0	 -144.0	 1.0	 100.0	 0	 288	 0.0; % NG
	482	 0.0	 -2.21	 17.0	 -16.0	 1.0	 100.0	 0	 16	 0.0; % NG
	482	 0.0	 -2.21	 116.0	 -116.0	 1.0	 100.0	 0	 231	 0.0; % NG
	494	 0.0	 0.09	 229.0	 -229.0	 1.03333	 100.0	 0	 457	 0.0; % NG
	511	 0.0	 1.56	 14.0	 -14.0	 1.0	 100.0	 0	 27	 0.0; % NG
	520	 0.0	 0.0	 0.0	 0.0	 1.01587	 100.0	 0	 0	 0.0; % NG
	521	 0.0	 0.0	 33.0	 -33.0	 1.02222	 100.0	 0	 65	 0.0; % NG
	531	 0.0	 -1.49	 21.0	 -21.0	 1.0	 100.0	 0	 41	 0.0; % NG
	531	 0.0	 -1.49	 31.0	 -31.0	 1.0	 100.0	 0	 61	 0.0; % PEL
	531	 0.0	 -1.49	 42.0	 -42.0	 1.0	 100.0	 0	 84	 0.0; % PEL
	537	 0.0	 0.0	 4.0	 -4.0	 1.02222	 100.0	 0	 8	 0.0; % NG
	537	 63.0	 0.0	 63.0	 -63.0	 1.02222	 100.0	 1	 126	 0.0; % PEL
	546	 52.5	 0.0	 53.0	 -53.0	 1.0	 100.0	 1	 105	 0.0; % NG
	549	 0.0	 2.0	 64.0	 -64.0	 1.0	 100.0	 0	 128	 0.0; % NG
	571	 0.0	 0.0	 5.0	 -5.0	 1.01588	 100.0	 0	 10	 0.0; % NG
	571	 69.0	 0.0	 69.0	 -69.0	 1.01588	 100.0	 1	 138	 0.0; % PEL
	571	 0.0	 0.0	 97.0	 -97.0	 1.01588	 100.0	 0	 194	 0.0; % NG
	584	 92.0	 0.0	 92.0	 -92.0	 1.0	 100.0	 1	 184	 0.0; % NG
	586	 0.0	 0.0	 23.0	 -23.0	 1.01588	 100.0	 0	 46	 0.0; % NG
	587	 0.0	 -4.04	 109.0	 -109.0	 1.0	 100.0	 0	 218	 0.0; % NG
	590	 0.0	 0.1	 50.0	 -50.0	 1.0	 100.0	 0	 99	 0.0; % PEL
	594	 0.0	 2.85	 185.0	 -185.0	 1.0	 100.0	 0	 370	 0.0; % COW
	601	 0.0	 1.0	 13.0	 -13.0	 1.01587	 100.0	 0	 25	 0.0; % PEL
	611	 263.0	 0.0	 263.0	 -263.0	 0.975	 100.0	 1	 526	 0.0; % NG
	611	 0.0	 -1.37	 106.0	 -106.0	 0.975	 100.0	 0	 212	 0.0; % NG
	613	 0.0	 0.0	 29.0	 -29.0	 1.02222	 100.0	 0	 57	 0.0; % NG
	613	 0.0	 0.0	 311.0	 -311.0	 1.02222	 100.0	 0	 621	 0.0; % COW
	613	 0.0	 0.0	 196.0	 -196.0	 1.02222	 100.0	 0	 391	 0.0; % COW
	614	 0.0	 0.0	 16.0	 -16.0	 1.0	 100.0	 0	 32	 0.0; % PEL
	614	 0.0	 0.0	 7.0	 -7.0	 1.0	 100.0	 0	 14	 0.0; % NG
	626	 0.0	 -8.3	 19.0	 -19.0	 1.01111	 100.0	 0	 37	 -8.3; % COW
	635	 0.0	 -6.0	 97.0	 -97.0	 1.0	 100.0	 0	 194	 0.0; % COW
	638	 0.0	 1.83	 222.0	 -222.0	 1.01587	 100.0	 0	 444	 0.0; % COW
	638	 0.0	 5.83	 11.0	 -11.0	 1.01587	 100.0	 0	 22	 0.0; % PEL
	653	 0.0	 0.0	 42.0	 -42.0	 1.0	 100.0	 0	 83	 0.0; % NG
	671	 0.0	 0.0	 56.0	 -56.0	 1.02222	 100.0	 0	 111	 0.0; % NG
	671	 0.0	 0.0	 22.0	 -22.0	 1.02222	 100.0	 0	 43	 0.0; % PEL
	672	 0.0	 0.0	 2.0	 -2.0	 1.02778	 100.0	 0	 3	 0.0; % NG
	672	 73.0	 0.0	 73.0	 -73.0	 1.02778	 100.0	 1	 146	 0.0; % PEL
	680	 0.0	 0.0	 17.0	 -17.0	 1.02222	 100.0	 0	 34	 0.0; % NG
	681	 0.0	 0.0	 101.0	 -101.0	 1.02772	 100.0	 0	 201	 0.0; % PEL
	685	 0.0	 -0.6	 32.0	 -32.0	 0.94444	 100.0	 0	 63	 0.0; % NG
	685	 0.0	 -0.6	 15.0	 -15.0	 0.94444	 100.0	 0	 29	 0.0; % NG
	685	 0.0	 -0.6	 25.0	 -25.0	 0.94444	 100.0	 0	 50	 0.0; % PEL
	685	 0.0	 -0.6	 69.0	 -69.0	 0.94444	 100.0	 0	 137	 0.0; % NG
	696	 163.5	 0.0	 164.0	 -164.0	 1.02222	 100.0	 1	 327	 0.0; % COW
	696	 0.0	 0.0	 21.0	 -21.0	 1.02222	 100.0	 0	 41	 0.0; % NG
	696	 0.0	 0.0	 476.0	 -476.0	 1.02222	 100.0	 0	 951	 0.0; % COW
	700	 33.0	 0.0	 33.0	 -33.0	 0.975	 100.0	 1	 66	 0.0; % NG
	700	 26.0	 0.0	 26.0	 -26.0	 0.975	 100.0	 1	 52	 0.0; % NG
	699	 28.5	 0.0	 29.0	 -29.0	 0.975	 100.0	 1	 57	 0.0; % PEL
	699	 65.5	 0.0	 66.0	 -66.0	 0.975	 100.0	 1	 131	 0.0; % COW
	698	 45.0	 0.0	 45.0	 -45.0	 0.975	 100.0	 1	 90	 0.0; % COW
	698	 30.5	 0.0	 31.0	 -31.0	 0.975	 100.0	 1	 61	 0.0; % NG
	706	 0.0	 0.69	 137.0	 -137.0	 0.94444	 100.0	 0	 273	 0.0; % NG
	706	 0.0	 1.19	 147.0	 -147.0	 0.94444	 100.0	 0	 294	 0.0; % NG
	706	 0.0	 1.6	 19.0	 -19.0	 0.94444	 100.0	 0	 37	 0.0; % NG
	706	 0.0	 -1.31	 59.0	 -59.0	 0.94444	 100.0	 0	 118	 0.0; % NG
	733	 235.5	 0.0	 236.0	 -236.0	 1.02222	 100.0	 1	 471	 0.0; % COW
	734	 56.0	 0.0	 56.0	 -56.0	 1.0	 100.0	 1	 112	 0.0; % NG
	735	 0.0	 0.0	 48.0	 -48.0	 1.01588	 100.0	 0	 96	 0.0; % NG
	735	 29.5	 0.0	 30.0	 -30.0	 1.01588	 100.0	 1	 59	 0.0; % NG
	737	 0.0	 0.0	 28.0	 -28.0	 1.0	 100.0	 0	 55	 0.0; % NG
	737	 0.0	 0.0	 167.0	 -167.0	 1.0	 100.0	 0	 333	 0.0; % NG
	738	 0.0	 0.1	 673.0	 -673.0	 1.0	 100.0	 0	 1345	 0.0; % COW
	745	 0.0	 -2.25	 118.0	 -118.0	 1.0	 100.0	 0	 235	 0.0; % NG
	745	 0.0	 -1.65	 7.0	 -7.0	 1.0	 100.0	 0	 13	 0.0; % NG
	746	 28.5	 0.0	 29.0	 -29.0	 1.0	 100.0	 1	 57	 0.0; % PEL
	747	 109.25	 0.0	 109.0	 -109.0	 1.02222	 100.0	 1	 218	 0.5; % PEL
	752	 0.0	 -2.63	 11.0	 -11.0	 1.0	 100.0	 0	 22	 -5.0; % NG
	759	 0.0	 5.35	 8.0	 -8.0	 0.98889	 100.0	 0	 11	 0.0; % PEL
	761	 0.0	 0.0	 51.0	 -51.0	 1.0	 100.0	 0	 101	 0.0; % NG
	762	 0.0	 0.0	 16.0	 -16.0	 1.0	 100.0	 0	 31	 0.0; % PEL
	761	 99.5	 0.0	 100.0	 -100.0	 1.0	 100.0	 1	 199	 0.0; % NG
	762	 67.5	 0.0	 68.0	 -68.0	 1.0	 100.0	 1	 135	 0.0; % NG
	763	 0.0	 0.06	 19.0	 -19.0	 0.825	 100.0	 0	 38	 0.0; % PEL
	763	 0.0	 2.61	 2.61	 -2.61	 0.825	 100.0	 0	 3	 0.0; % NG
	763	 0.0	 0.16	 29.0	 -29.0	 0.825	 100.0	 0	 57	 0.0; % PEL
	763	 0.0	 0.11	 30.0	 -30.0	 0.825	 100.0	 0	 59	 0.0; % PEL
	767	 0.0	 0.0	 91.0	 -91.0	 1.01588	 100.0	 0	 182	 0.0; % NG
	767	 0.0	 0.0	 11.0	 -11.0	 1.01588	 100.0	 0	 21	 0.0; % PEL
	787	 0.0	 -3.75	 38.0	 -38.0	 0.975	 100.0	 0	 75	 0.0; % PEL
	787	 0.0	 -3.75	 27.0	 -27.0	 0.975	 100.0	 0	 54	 0.0; % COW
	788	 0.0	 -3.4	 48.0	 -48.0	 0.975	 100.0	 0	 96	 0.0; % NG
	802	 111.0	 0.0	 111.0	 -111.0	 0.975	 100.0	 1	 222	 0.0; % NG
	802	 45.0	 0.0	 45.0	 -45.0	 0.975	 100.0	 1	 90	 0.0; % PEL
	803	 67.5	 0.0	 68.0	 -68.0	 0.975	 100.0	 1	 135	 0.0; % COW
	803	 41.5	 0.0	 42.0	 -42.0	 0.975	 100.0	 1	 83	 0.0; % NG
	804	 38.5	 0.0	 39.0	 -39.0	 0.975	 100.0	 1	 77	 0.0; % PEL
	804	 64.5	 0.0	 65.0	 -65.0	 0.975	 100.0	 1	 129	 0.0; % PEL
	808	 0.0	 0.0	 2.0	 -2.0	 1.0	 100.0	 0	 3	 0.0; % PEL
	816	 93.25	 0.0	 93.0	 -93.0	 1.01587	 100.0	 1	 186	 0.5; % NG
	816	 0.0	 0.0	 6.0	 -9.0	 1.01587	 100.0	 0	 8	 0.5; % PEL
	817	 139.75	 0.0	 140.0	 -140.0	 1.01587	 100.0	 1	 279	 0.5; % PEL
	817	 80.75	 0.0	 81.0	 -81.0	 1.01587	 100.0	 1	 161	 0.5; % PEL
	817	 42.75	 0.0	 43.0	 -43.0	 1.01587	 100.0	 1	 85	 0.5; % PEL
	817	 96.25	 0.0	 96.0	 -96.0	 1.01587	 100.0	 1	 192	 0.5; % NG
	827	 0.0	 0.38	 135.0	 -135.0	 1.0	 100.0	 0	 269	 0.0; % COW
	827	 0.0	 3.0	 17.0	 -17.0	 1.0	 100.0	 0	 33	 0.0; % NG
	830	 0.0	 0.0	 51.0	 -51.0	 1.02222	 100.0	 0	 102	 0.0; % PEL
	831	 0.0	 1.43	 10.0	 -10.0	 1.0	 100.0	 0	 13	 0.0; % PEL
	832	 0.0	 -2.73	 13.0	 -13.0	 0.94444	 100.0	 0	 25	 0.0; % NG
	834	 0.0	 -0.51	 31.0	 -31.0	 1.0	 100.0	 0	 61	 0.0; % NG
	834	 0.0	 0.0	 4.0	 -4.0	 1.0	 100.0	 0	 7	 0.0; % PEL
...
];

%% generator cost data
%	2	startup	shutdown	n	c(n-1)	...	c0
mpc.gencost = [
	2	 0.0	 0.0	 3	   0.000000	  33.448778	   0.000000; % COW
	2	 0.0	 0.0	 3	   0.000000	  41.332818	   0.000000; % NG
	2	 0.0	 0.0	 3	   0.000000	  13.835940	   0.000000; % NG
	2	 0.0	 0.0	 3	   0.000000	  24.667146	   0.000000; % NG
	2	 0.0	 0.0	 3	   0.000000	  41.609647	   0.000000; % PEL
	2	 0.0	 0.0	 3	   0.000000	  16.317434	   0.000000; % COW
	2	 0.0	 0.0	 3	   0.000000	 122.685524	   0.000000; % PEL
	2	 0.0	 0.0	 3	   0.000000	  18.728687	   0.000000; % NG
	2	 0.0	 0.0	 3	   0.000000	  16.417012	   0.000000; % PEL
	2	 0.0	 0.0	 3	   0.000000	  44.737952	   0.000000; % PEL
	2	 0.0	 0.0	 3	   0.000000	  22.951399	   0.000000; % NG
	2	 0.0	 0.0	 3	   0.000000	  42.572952	   0.000000; % NG
	2	 0.0	 0.0	 3	   0.000000	  21.558129	   0.000000; % NG
	2	 0.0	 0.0	 3	   0.000000	 112.206948	   0.000000; % NG
	2	 0.0	 0.0	 3	   0.000000	 112.328840	   0.000000; % PEL
	2	 0.0	 0.0	 3	   0.000000	 125.539496	   0.000000; % PEL
	2	 0.0	 0.0	 3	   0.000000	  99.363606	   0.000000; % NG
	2	 0.0	 0.0	 3	   0.000000	  53.949700	   0.000000; % COW
	2	 0.0	 0.0	 3	   0.000000	 106.450488	   0.000000; % NG
	2	 0.0	 0.0	 3	   0.000000	 109.303907	   0.000000; % NG
	2	 0.0	 0.0	 3	   0.000000	  21.866918	   0.000000; % NG
	2	 0.0	 0.0	 3	   0.000000	  35.522208	   0.000000; % COW
	2	 0.0	 0.0	 3	   0.000000	 118.651498	   0.000000; % PEL
	2	 0.0	 0.0	 3	   0.000000	  25.202641	   0.000000; % NG
	2	 0.0	 0.0	 3	   0.000000	  54.149483	   0.000000; % NG
	2	 0.0	 0.0	 3	   0.000000	  22.579173	   0.000000; % NG
	2	 0.0	 0.0	 3	   0.000000	  26.571266	   0.000000; % COW
	2	 0.0	 0.0	 3	   0.000000	  37.191374	   0.000000; % PEL
	2	 0.0	 0.0	 3	   0.000000	  31.309683	   0.000000; % NG
	2	 0.0	 0.0	 3	   0.000000	 110.841483	   0.000000; % NG
	2	 0.0	 0.0	 3	   0.000000	 111.740133	   0.000000; % PEL
	2	 0.0	 0.0	 3	   0.000000	  43.319341	   0.000000; % COW
	2	 0.0	 0.0	 3	   0.000000	  14.233921	   0.000000; % NG
	2	 0.0	 0.0	 3	   0.000000	 102.110539	   0.000000; % NG
	2	 0.0	 0.0	 3	   0.000000	  33.852190	   0.000000; % PEL
	2	 0.0	 0.0	 3	   0.000000	  20.629508	   0.000000; % NG
	2	 0.0	 0.0	 3	   0.000000	 110.534362	   0.000000; % PEL
	2	 0.0	 0.0	 3	   0.000000	  23.102280	   0.000000; % NG
	2	 0.0	 0.0	 3	   0.000000	 104.965248	   0.000000; % PEL
	2	 0.0	 0.0	 3	   0.000000	  50.527484	   0.000000; % NG
	2	 0.0	 0.0	 3	   0.000000	  52.987734	   0.000000; % NG
	2	 0.0	 0.0	 3	   0.000000	 119.383923	   0.000000; % NG
	2	 0.0	 0.0	 3	   0.000000	  40.798227	   0.000000; % NG
	2	 0.0	 0.0	 3	   0.000000	  38.687217	   0.000000; % NG
	2	 0.0	 0.0	 3	   0.000000	  31.216674	   0.000000; % COW
	2	 0.0	 0.0	 3	   0.000000	  15.249232	   0.000000; % COW
	2	 0.0	 0.0	 3	   0.000000	  10.666055	   0.000000; % NG
	2	 0.0	 0.0	 3	   0.000000	 104.915824	   0.000000; % PEL
	2	 0.0	 0.0	 3	   0.000000	 103.955961	   0.000000; % NG
	2	 0.0	 0.0	 3	   0.000000	  27.087259	   0.000000; % NG
	2	 0.0	 0.0	 3	   0.000000	  29.434265	   0.000000; % NG
	2	 0.0	 0.0	 3	   0.000000	  53.812514	   0.000000; % NG
	2	 0.0	 0.0	 3	   0.000000	 117.684672	   0.000000; % NG
	2	 0.0	 0.0	 3	   0.000000	  20.546339	   0.000000; % NG
	2	 0.0	 0.0	 3	   0.000000	 108.737407	   0.000000; % PEL
	2	 0.0	 0.0	 3	   0.000000	  13.090251	   0.000000; % PEL
	2	 0.0	 0.0	 3	   0.000000	 106.880092	   0.000000; % NG
	2	 0.0	 0.0	 3	   0.000000	  23.391388	   0.000000; % NG
	2	 0.0	 0.0	 3	   0.000000	   9.277855	   0.000000; % PEL
	2	 0.0	 0.0	 3	   0.000000	  33.103546	   0.000000; % NG
	2	 0.0	 0.0	 3	   0.000000	  31.454121	   0.000000; % NG
	2	 0.0	 0.0	 3	   0.000000	  41.889085	   0.000000; % NG
	2	 0.0	 0.0	 3	   0.000000	 103.191000	   0.000000; % PEL
	2	 0.0	 0.0	 3	   0.000000	  38.635503	   0.000000; % NG
	2	 0.0	 0.0	 3	   0.000000	  29.098634	   0.000000; % COW
	2	 0.0	 0.0	 3	   0.000000	  28.693762	   0.000000; % PEL
	2	 0.0	 0.0	 3	   0.000000	  46.202652	   0.000000; % NG
	2	 0.0	 0.0	 3	   0.000000	   0.000000	   0.000000; % SYNC
	2	 0.0	 0.0	 3	   0.000000	   0.000000	   0.000000; % SYNC
	2	 0.0	 0.0	 3	   0.000000	 106.127259	   0.000000; % NG
	2	 0.0	 0.0	 3	   0.000000	  13.362537	   0.000000; % NG
	2	 0.0	 0.0	 3	   0.000000	  28.459525	   0.000000; % PEL
	2	 0.0	 0.0	 3	   0.000000	  36.070484	   0.000000; % NG
	2	 0.0	 0.0	 3	   0.000000	  40.136595	   0.000000; % NG
	2	 0.0	 0.0	 3	   0.000000	  32.572384	   0.000000; % NG
	2	 0.0	 0.0	 3	   0.000000	 105.523863	   0.000000; % PEL
	2	 0.0	 0.0	 3	   0.000000	 104.546718	   0.000000; % PEL
	2	 0.0	 0.0	 3	   0.000000	  44.158454	   0.000000; % NG
	2	 0.0	 0.0	 3	   0.000000	 106.412773	   0.000000; % NG
	2	 0.0	 0.0	 3	   0.000000	 118.023230	   0.000000; % PEL
	2	 0.0	 0.0	 3	   0.000000	  48.775553	   0.000000; % NG
	2	 0.0	 0.0	 3	   0.000000	  28.893293	   0.000000; % NG
	2	 0.0	 0.0	 3	   0.000000	  15.412473	   0.000000; % NG
	2	 0.0	 0.0	 3	   0.000000	 102.491204	   0.000000; % PEL
	2	 0.0	 0.0	 3	   0.000000	  50.080449	   0.000000; % NG
	2	 0.0	 0.0	 3	   0.000000	 119.136435	   0.000000; % NG
	2	 0.0	 0.0	 3	   0.000000	 112.758050	   0.000000; % COW
	2	 0.0	 0.0	 3	   0.000000	 116.218952	   0.000000; % COW
	2	 0.0	 0.0	 3	   0.000000	 118.072050	   0.000000; % PEL
	2	 0.0	 0.0	 3	   0.000000	 104.334969	   0.000000; % PEL
	2	 0.0	 0.0	 3	   0.000000	 118.202290	   0.000000; % NG
	2	 0.0	 0.0	 3	   0.000000	 119.324988	   0.000000; % NG
	2	 0.0	 0.0	 3	   0.000000	  17.270899	   0.000000; % PEL
	2	 0.0	 0.0	 3	   0.000000	  46.807453	   0.000000; % PEL
	2	 0.0	 0.0	 3	   0.000000	  14.142931	   0.000000; % NG
	2	 0.0	 0.0	 3	   0.000000	  38.557329	   0.000000; % NG
	2	 0.0	 0.0	 3	   0.000000	  30.508318	   0.000000; % NG
	2	 0.0	 0.0	 3	   0.000000	  34.527934	   0.000000; % NG
	2	 0.0	 0.0	 3	   0.000000	  44.619678	   0.000000; % NG
	2	 0.0	 0.0	 3	   0.000000	 108.377117	   0.000000; % NG
	2	 0.0	 0.0	 3	   0.000000	  25.824738	   0.000000; % NG
	2	 0.0	 0.0	 3	   0.000000	  41.199053	   0.000000; % NG
	2	 0.0	 0.0	 3	   0.000000	  31.877238	   0.000000; % NG
	2	 0.0	 0.0	 3	   0.000000	 101.351725	   0.000000; % NG
	2	 0.0	 0.0	 3	   0.000000	 108.068924	   0.000000; % PEL
	2	 0.0	 0.0	 3	   0.000000	   9.761813	   0.000000; % PEL
	2	 0.0	 0.0	 3	   0.000000	  34.219027	   0.000000; % NG
	2	 0.0	 0.0	 3	   0.000000	 122.675116	   0.000000; % PEL
	2	 0.0	 0.0	 3	   0.000000	  42.057955	   0.000000; % NG
	2	 0.0	 0.0	 3	   0.000000	 114.541456	   0.000000; % NG
	2	 0.0	 0.0	 3	   0.000000	  41.454943	   0.000000; % NG
	2	 0.0	 0.0	 3	   0.000000	  34.324663	   0.000000; % PEL
	2	 0.0	 0.0	 3	   0.000000	  28.305836	   0.000000; % NG
	2	 0.0	 0.0	 3	   0.000000	  22.962516	   0.000000; % NG
	2	 0.0	 0.0	 3	   0.000000	  37.945927	   0.000000; % NG
	2	 0.0	 0.0	 3	   0.000000	  25.637584	   0.000000; % NG
	2	 0.0	 0.0	 3	   0.000000	  36.894429	   0.000000; % PEL
	2	 0.0	 0.0	 3	   0.000000	 122.230259	   0.000000; % COW
	2	 0.0	 0.0	 3	   0.000000	  18.258590	   0.000000; % PEL
	2	 0.0	 0.0	 3	   0.000000	  34.396766	   0.000000; % NG
	2	 0.0	 0.0	 3	   0.000000	  37.691184	   0.000000; % NG
	2	 0.0	 0.0	 3	   0.000000	  17.090377	   0.000000; % NG
	2	 0.0	 0.0	 3	   0.000000	  52.436519	   0.000000; % COW
	2	 0.0	 0.0	 3	   0.000000	  27.981756	   0.000000; % COW
	2	 0.0	 0.0	 3	   0.000000	 116.180190	   0.000000; % PEL
	2	 0.0	 0.0	 3	   0.000000	  39.914188	   0.000000; % NG
	2	 0.0	 0.0	 3	   0.000000	  23.309066	   0.000000; % COW
	2	 0.0	 0.0	 3	   0.000000	  42.409356	   0.000000; % COW
	2	 0.0	 0.0	 3	   0.000000	  21.175224	   0.000000; % COW
	2	 0.0	 0.0	 3	   0.000000	  38.792503	   0.000000; % PEL
	2	 0.0	 0.0	 3	   0.000000	 111.867342	   0.000000; % NG
	2	 0.0	 0.0	 3	   0.000000	  27.929715	   0.000000; % NG
	2	 0.0	 0.0	 3	   0.000000	  32.021972	   0.000000; % PEL
	2	 0.0	 0.0	 3	   0.000000	  10.569974	   0.000000; % NG
	2	 0.0	 0.0	 3	   0.000000	 111.951478	   0.000000; % PEL
	2	 0.0	 0.0	 3	   0.000000	  15.711250	   0.000000; % NG
	2	 0.0	 0.0	 3	   0.000000	  26.867763	   0.000000; % PEL
	2	 0.0	 0.0	 3	   0.000000	  12.517429	   0.000000; % NG
	2	 0.0	 0.0	 3	   0.000000	  38.118960	   0.000000; % NG
	2	 0.0	 0.0	 3	   0.000000	  38.662547	   0.000000; % PEL
	2	 0.0	 0.0	 3	   0.000000	  31.577134	   0.000000; % NG
	2	 0.0	 0.0	 3	   0.000000	 116.196042	   0.000000; % COW
	2	 0.0	 0.0	 3	   0.000000	  42.708059	   0.000000; % NG
	2	 0.0	 0.0	 3	   0.000000	  30.813467	   0.000000; % COW
	2	 0.0	 0.0	 3	   0.000000	  51.565361	   0.000000; % NG
	2	 0.0	 0.0	 3	   0.000000	  47.917871	   0.000000; % NG
	2	 0.0	 0.0	 3	   0.000000	  25.772872	   0.000000; % PEL
	2	 0.0	 0.0	 3	   0.000000	  26.773032	   0.000000; % COW
	2	 0.0	 0.0	 3	   0.000000	  29.355321	   0.000000; % COW
	2	 0.0	 0.0	 3	   0.000000	  35.125469	   0.000000; % NG
	2	 0.0	 0.0	 3	   0.000000	  99.252137	   0.000000; % NG
	2	 0.0	 0.0	 3	   0.000000	 115.910524	   0.000000; % NG
	2	 0.0	 0.0	 3	   0.000000	  37.955969	   0.000000; % NG
	2	 0.0	 0.0	 3	   0.000000	  32.236783	   0.000000; % NG
	2	 0.0	 0.0	 3	   0.000000	  33.641991	   0.000000; % COW
	2	 0.0	 0.0	 3	   0.000000	 118.845401	   0.000000; % NG
	2	 0.0	 0.0	 3	   0.000000	  25.207646	   0.000000; % NG
	2	 0.0	 0.0	 3	   0.000000	  43.739311	   0.000000; % NG
	2	 0.0	 0.0	 3	   0.000000	  19.447295	   0.000000; % NG
	2	 0.0	 0.0	 3	   0.000000	 103.789418	   0.000000; % NG
	2	 0.0	 0.0	 3	   0.000000	  20.125469	   0.000000; % COW
	2	 0.0	 0.0	 3	   0.000000	  42.162623	   0.000000; % NG
	2	 0.0	 0.0	 3	   0.000000	  27.454138	   0.000000; % NG
	2	 0.0	 0.0	 3	   0.000000	  21.079907	   0.000000; % PEL
	2	 0.0	 0.0	 3	   0.000000	 109.022197	   0.000000; % PEL
	2	 0.0	 0.0	 3	   0.000000	  40.297021	   0.000000; % NG
	2	 0.0	 0.0	 3	   0.000000	 106.139212	   0.000000; % PEL
	2	 0.0	 0.0	 3	   0.000000	  10.617365	   0.000000; % NG
	2	 0.0	 0.0	 3	   0.000000	  56.253423	   0.000000; % PEL
	2	 0.0	 0.0	 3	   0.000000	  29.504637	   0.000000; % NG
	2	 0.0	 0.0	 3	   0.000000	  23.424946	   0.000000; % NG
	2	 0.0	 0.0	 3	   0.000000	 117.485491	   0.000000; % PEL
	2	 0.0	 0.0	 3	   0.000000	  22.273778	   0.000000; % NG
	2	 0.0	 0.0	 3	   0.000000	 112.927805	   0.000000; % PEL
	2	 0.0	 0.0	 3	   0.000000	  36.506497	   0.000000; % PEL
	2	 0.0	 0.0	 3	   0.000000	  43.167009	   0.000000; % NG
	2	 0.0	 0.0	 3	   0.000000	  36.381968	   0.000000; % PEL
	2	 0.0	 0.0	 3	   0.000000	  25.199616	   0.000000; % PEL
	2	 0.0	 0.0	 3	   0.000000	  22.281954	   0.000000; % COW
	2	 0.0	 0.0	 3	   0.000000	  23.339728	   0.000000; % NG
	2	 0.0	 0.0	 3	   0.000000	 109.971466	   0.000000; % NG
	2	 0.0	 0.0	 3	   0.000000	  12.719871	   0.000000; % PEL
	2	 0.0	 0.0	 3	   0.000000	  28.546665	   0.000000; % COW
	2	 0.0	 0.0	 3	   0.000000	  35.819221	   0.000000; % NG
	2	 0.0	 0.0	 3	   0.000000	  37.980137	   0.000000; % PEL
	2	 0.0	 0.0	 3	   0.000000	  52.456038	   0.000000; % PEL
	2	 0.0	 0.0	 3	   0.000000	  23.890540	   0.000000; % PEL
	2	 0.0	 0.0	 3	   0.000000	  19.235121	   0.000000; % NG
	2	 0.0	 0.0	 3	   0.000000	  60.132845	   0.000000; % PEL
	2	 0.0	 0.0	 3	   0.000000	 111.353488	   0.000000; % PEL
	2	 0.0	 0.0	 3	   0.000000	  29.875404	   0.000000; % PEL
	2	 0.0	 0.0	 3	   0.000000	  19.082651	   0.000000; % PEL
	2	 0.0	 0.0	 3	   0.000000	   4.676219	   0.000000; % NG
	2	 0.0	 0.0	 3	   0.000000	  22.908268	   0.000000; % COW
	2	 0.0	 0.0	 3	   0.000000	  19.037183	   0.000000; % NG
	2	 0.0	 0.0	 3	   0.000000	 120.685498	   0.000000; % PEL
	2	 0.0	 0.0	 3	   0.000000	 119.354325	   0.000000; % PEL
	2	 0.0	 0.0	 3	   0.000000	  27.686941	   0.000000; % NG
	2	 0.0	 0.0	 3	   0.000000	 106.648189	   0.000000; % NG
	2	 0.0	 0.0	 3	   0.000000	  24.004908	   0.000000; % PEL
...
];

%% branch data
%	fbus	tbus	r	x	b	rateA	rateB	rateC	ratio	angle	status	angmin	angmax
mpc.branch = [
	4667	 1	 0.005726	 0.010482	 0.0	 2186.0	 2186.0	 2186.0	 0.0	 0.0	 1	 -30.0	 30.0;
	5273	 1	 0.01284	 0.025679	 0.0	 910.0	 910.0	 910.0	 0.0	 0.0	 1	 -30.0	 30.0;
	1689	 2	 0.005799	 0.010615	 0.0075	 2441.0	 2441.0	 2441.0	 0.0	 0.0	 1	 -30.0	 30.0;
	1680	 3	 0.134039	 0.309398	 0.0035	 91.0	 91.0	 91.0	 0.0	 0.0	 1	 -30.0	 30.0;
	2311	 3	 0.049131	 0.133283	 0.0015	 215.0	 215.0	 215.0	 0.0	 0.0	 1	 -30.0	 30.0;
	696	 4	 0.025926	 0.109136	 0.0002	 281.0	 281.0	 281.0	 0.0	 0.0	 1	 -30.0	 30.0;
	3961	 4	 0.05	 0.126914	 0.0006	 226.0	 226.0	 226.0	 0.0	 0.0	 1	 -30.0	 30.0;
	5073	 4	 0.02321	 0.097407	 0.0016	 315.0	 315.0	 315.0	 0.0	 0.0	 1	 -30.0	 30.0;
	4437	 5	 0.040564	 0.113631	 0.0013	 245.0	 245.0	 245.0	 0.0	 0.0	 1	 -30.0	 30.0;
	2789	 6	 0.006047	 0.020912	 0.0222	 1398.0	 1398.0	 1398.0	 0.0	 0.0	 1	 -30.0	 30.0;
	2790	 7	 0.012472	 0.032099	 0.0061	 884.0	 884.0	 884.0	 0.0	 0.0	 1	 -30.0	 30.0;
	2477	 8	 0.002607	 0.017462	 0.0324	 540.0	 540.0	 540.0	 0.0	 0.0	 1	 -30.0	 30.0;
	473	 9	 0.053893	 0.14258	 0.0017	 194.0	 194.0	 194.0	 0.0	 0.0	 1	 -30.0	 30.0;
	11	 10	 0.000247	 0.001235	 0.0005	 24078.0	 24078.0	 24078.0	 0.0	 0.0	 1	 -30.0	 30.0;
	11	 10	 0.000247	 0.001235	 0.0002	 24078.0	 24078.0	 24078.0	 0.0	 0.0	 1	 -30.0	 30.0;
	30	 11	 0.039753	 0.100988	 0.0047	 284.0	 284.0	 284.0	 0.0	 0.0	 1	 -30.0	 30.0;
	2945	 11	 0.037654	 0.096173	 0.001	 294.0	 294.0	 294.0	 0.0	 0.0	 1	 -30.0	 30.0;
	2189	 12	 0.014613	 0.060721	 0.0008	 487.0	 487.0	 487.0	 0.0	 0.0	 1	 -30.0	 30.0;
	4039	 12	 0.034064	 0.121139	 0.0015	 242.0	 242.0	 242.0	 0.0	 0.0	 1	 -30.0	 30.0;
	4041	 12	 0.000242	 0.000442	 0.0004	 60355.0	 60355.0	 60355.0	 0.0	 0.0	 1	 -30.0	 30.0;
	115	 13	 2.1e-05	 0.000125	 0.1386	 737.0	 737.0	 737.0	 0.0	 0.0	 1	 -30.0	 30.0;
	2345	 13	 0.000145	 0.001877	 0.0635	 2487.0	 2487.0	 2487.0	 0.0	 0.0	 1	 -30.0	 30.0;
	4597	 13	 0.000319	 0.003234	 0.0838	 1841.0	 1841.0	 1841.0	 0.0	 0.0	 1	 -30.0	 30.0;
	116	 13	 2.1e-05	 0.000125	 0.1386	 737.0	 737.0	 737.0	 0.0	 0.0	 1	 -30.0	 30.0;
	1229	 14	 0.04	 0.134198	 0.0274	 217.0	 217.0	 217.0	 0.0	 0.0	 1	 -30.0	 30.0;
	2887	 14	 0.012222	 0.052346	 0.0026	 565.0	 565.0	 565.0	 0.0	 0.0	 1	 -30.0	 30.0;
	4615	 14	 0.007284	 0.045432	 0.0024	 660.0	 660.0	 660.0	 0.0	 0.0	 1	 -30.0	 30.0;
	4976	 14	 0.059963	 0.154222	 0.0236	 184.0	 184.0	 184.0	 0.0	 0.0	 1	 -30.0	 30.0;
	5259	 14	 0.018025	 0.110988	 0.0073	 270.0	 270.0	 270.0	 0.0	 0.0	 1	 -30.0	 30.0;
	2887	 14	 0.012222	 0.052593	 0.0032	 562.0	 562.0	 562.0	 0.0	 0.0	 1	 -30.0	 30.0;
	4615	 14	 0.007284	 0.044938	 0.0024	 667.0	 667.0	 667.0	 0.0	 0.0	 1	 -30.0	 30.0;
	2921	 15	 0.037541	 0.100529	 0.0011	 284.0	 284.0	 284.0	 0.0	 0.0	 1	 -30.0	 30.0;
	4150	 15	 0.090199	 0.211388	 0.0023	 133.0	 133.0	 133.0	 0.0	 0.0	 1	 -30.0	 30.0;
	4477	 15	 0.09801	 0.267574	 0.0	 107.0	 107.0	 107.0	 0.0	 0.0	 1	 -30.0	 30.0;
	252	 16	 0.071806	 0.191484	 0.0019	 149.0	 149.0	 149.0	 0.0	 0.0	 1	 -30.0	 30.0;
	340	 16	 0.119174	 0.284958	 0.0044	 99.0	 99.0	 99.0	 0.0	 0.0	 1	 -30.0	 30.0;
	5865	 17	 0.022346	 0.061111	 0.0029	 457.0	 457.0	 457.0	 0.0	 0.0	 1	 -30.0	 30.0;
	3747	 18	 0.009383	 0.019753	 0.0	 1194.0	 1194.0	 1194.0	 0.0	 0.0	 1	 -30.0	 30.0;
	5121	 19	 0.000252	 0.000504	 0.0	 52398.0	 52398.0	 52398.0	 0.0	 0.0	 1	 -30.0	 30.0;
	3747	 20	 0.001975	 0.004444	 0.0	 5369.0	 5369.0	 5369.0	 0.0	 0.0	 1	 -30.0	 30.0;
	1359	 21	 0.036296	 0.099012	 0.0045	 282.0	 282.0	 282.0	 0.0	 0.0	 1	 -30.0	 30.0;
	1605	 21	 0.032716	 0.089136	 0.0057	 313.0	 313.0	 313.0	 0.0	 0.0	 1	 -30.0	 30.0;
	1849	 22	 0.138574	 0.351474	 0.0058	 81.0	 81.0	 81.0	 0.0	 0.0	 1	 -30.0	 30.0;
	5050	 22	 0.094407	 0.210456	 0.0044	 132.0	 132.0	 132.0	 0.0	 0.0	 1	 -30.0	 30.0;
	1161	 23	 0.047115	 0.117158	 0.001	 234.0	 234.0	 234.0	 0.0	 0.0	 1	 -30.0	 30.0;
	2713	 23	 0.039557	 0.120937	 0.0132	 233.0	 233.0	 233.0	 0.0	 0.0	 1	 -30.0	 30.0;
	3443	 23	 0.022676	 0.062484	 0.0007	 445.0	 445.0	 445.0	 0.0	 0.0	 1	 -30.0	 30.0;
	145	 24	 0.064568	 0.16716	 0.0113	 180.0	 180.0	 180.0	 0.0	 0.0	 1	 -30.0	 30.0;
	1287	 24	 0.048605	 0.128481	 0.0062	 235.0	 235.0	 235.0	 0.0	 0.0	 1	 -30.0	 30.0;
	493	 25	 0.004815	 0.02963	 0.0016	 1049.0	 1049.0	 1049.0	 0.0	 0.0	 1	 -30.0	 30.0;
	2101	 25	 0.007309	 0.04463	 0.0073	 710.0	 710.0	 710.0	 0.0	 0.0	 1	 -30.0	 30.0;
	613	 26	 0.034321	 0.145802	 0.0073	 199.0	 199.0	 199.0	 0.0	 0.0	 1	 -30.0	 30.0;
	1872	 26	 0.004815	 0.009753	 0.0005	 2731.0	 2731.0	 2731.0	 0.0	 0.0	 1	 -30.0	 30.0;
	2613	 26	 0.049012	 0.133704	 0.0063	 209.0	 209.0	 209.0	 0.0	 0.0	 1	 -30.0	 30.0;
	2938	 26	 0.04642	 0.126543	 0.0058	 221.0	 221.0	 221.0	 0.0	 0.0	 1	 -30.0	 30.0;
	3357	 26	 0.046296	 0.125926	 0.006	 222.0	 222.0	 222.0	 0.0	 0.0	 1	 -30.0	 30.0;
	4652	 26	 0.053704	 0.136753	 0.0065	 203.0	 203.0	 203.0	 0.0	 0.0	 1	 -30.0	 30.0;
	2938	 26	 0.03358	 0.120988	 0.0062	 237.0	 237.0	 237.0	 0.0	 0.0	 1	 -30.0	 30.0;
	536	 27	 0.006163	 0.041067	 0.0759	 446.0	 446.0	 446.0	 0.0	 0.0	 1	 -30.0	 30.0;
	2358	 27	 0.000652	 0.004369	 0.0081	 558.0	 558.0	 558.0	 0.0	 0.0	 1	 -30.0	 30.0;
	2694	 28	 0.050945	 0.131922	 0.0015	 216.0	 216.0	 216.0	 0.0	 0.0	 1	 -30.0	 30.0;
	3913	 28	 0.058781	 0.149005	 0.0017	 190.0	 190.0	 190.0	 0.0	 0.0	 1	 -30.0	 30.0;
	2900	 29	 0.067019	 0.137566	 0.0037	 193.0	 193.0	 193.0	 0.0	 0.0	 1	 -30.0	 30.0;
	3339	 29	 0.032754	 0.088939	 0.0039	 312.0	 312.0	 312.0	 0.0	 0.0	 1	 -30.0	 30.0;
	3339	 29	 0.030184	 0.080096	 0.0053	 345.0	 345.0	 345.0	 0.0	 0.0	 1	 -30.0	 30.0;
	145	 30	 0.066049	 0.187778	 0.0099	 161.0	 161.0	 161.0	 0.0	 0.0	 1	 -30.0	 30.0;
	1559	 30	 0.065062	 0.133704	 0.0062	 212.0	 212.0	 212.0	 0.0	 0.0	 1	 -30.0	 30.0;
	4861	 30	 0.041728	 0.106049	 0.005	 281.0	 281.0	 281.0	 0.0	 0.0	 1	 -30.0	 30.0;
	151	 31	 0.009574	 0.03875	 0.0114	 740.0	 740.0	 740.0	 0.0	 0.0	 1	 -30.0	 30.0;
	3180	 31	 0.000171	 0.000313	 0.0002	 82782.0	 82782.0	 82782.0	 0.0	 0.0	 1	 -30.0	 30.0;
	3712	 31	 0.034266	 0.09423	 0.001	 295.0	 295.0	 295.0	 0.0	 0.0	 1	 -30.0	 30.0;
	4763	 31	 0.006803	 0.028219	 0.0	 1018.0	 1018.0	 1018.0	 0.0	 0.0	 1	 -30.0	 30.0;
	151	 31	 0.008566	 0.037541	 0.0121	 767.0	 767.0	 767.0	 0.0	 0.0	 1	 -30.0	 30.0;
	3749	 32	 0.009733	 0.034089	 0.0185	 902.0	 902.0	 902.0	 0.0	 0.0	 1	 -30.0	 30.0;
	369	 34	 0.000277	 0.002015	 0.003	 15218.0	 15218.0	 15218.0	 0.0	 0.0	 1	 -30.0	 30.0;
	1020	 33	 0.00881	 0.033995	 0.0607	 882.0	 882.0	 882.0	 0.0	 0.0	 1	 -30.0	 30.0;
	1162	 33	 0.004642	 0.019832	 0.0354	 1520.0	 1520.0	 1520.0	 0.0	 0.0	 1	 -30.0	 30.0;
	2591	 34	 0.008861	 0.03506	 0.0623	 856.0	 856.0	 856.0	 0.0	 0.0	 1	 -30.0	 30.0;
	2714	 34	 0.006993	 0.032869	 0.0557	 922.0	 922.0	 922.0	 0.0	 0.0	 1	 -30.0	 30.0;
	4768	 33	 0.002173	 0.008731	 0.0152	 3441.0	 3441.0	 3441.0	 0.0	 0.0	 1	 -30.0	 30.0;
	4878	 34	 0.00077	 0.003121	 0.0051	 9629.0	 9629.0	 9629.0	 0.0	 0.0	 1	 -30.0	 30.0;
	5700	 33	 0.004109	 0.016138	 0.0284	 1859.0	 1859.0	 1859.0	 0.0	 0.0	 1	 -30.0	 30.0;
	371	 35	 8.3e-05	 0.000907	 0.0202	 1034.0	 1034.0	 1034.0	 0.0	 0.0	 1	 -30.0	 30.0;
	1114	 35	 0.000552	 0.006726	 0.0939	 1786.0	 1786.0	 1786.0	 0.0	 0.0	 1	 -30.0	 30.0;
	2158	 35	 0.000512	 0.008012	 0.2455	 2462.0	 2462.0	 2462.0	 0.0	 0.0	 1	 -30.0	 30.0;
	3153	 35	 0.001107	 0.00918	 0.1906	 1644.0	 1644.0	 1644.0	 0.0	 0.0	 1	 -30.0	 30.0;
	370	 36	 6.2e-05	 0.000741	 0.0173	 1095.0	 1095.0	 1095.0	 0.0	 0.0	 1	 -30.0	 30.0;
	2158	 35	 0.000512	 0.008019	 0.2455	 2462.0	 2462.0	 2462.0	 0.0	 0.0	 1	 -30.0	 30.0;
	2158	 36	 0.001153	 0.013123	 0.1841	 1433.0	 1433.0	 1433.0	 0.0	 0.0	 1	 -30.0	 30.0;
	5258	 37	 0.055933	 0.120685	 0.0013	 229.0	 229.0	 229.0	 0.0	 0.0	 1	 -30.0	 30.0;
	5544	 37	 0.039053	 0.084404	 0.001	 328.0	 328.0	 328.0	 0.0	 0.0	 1	 -30.0	 30.0;
	726	 38	 0.00252	 0.006551	 0.0001	 4462.0	 4462.0	 4462.0	 0.0	 0.0	 1	 -30.0	 30.0;
	1233	 39	 0.009877	 0.042222	 0.0021	 697.0	 697.0	 697.0	 0.0	 0.0	 1	 -30.0	 30.0;
	5839	 39	 0.024815	 0.063086	 0.0029	 446.0	 446.0	 446.0	 0.0	 0.0	 1	 -30.0	 30.0;
	1233	 39	 0.009877	 0.042222	 0.0021	 697.0	 697.0	 697.0	 0.0	 0.0	 1	 -30.0	 30.0;
	2259	 40	 0.056173	 0.142593	 0.0066	 198.0	 198.0	 198.0	 0.0	 0.0	 1	 -30.0	 30.0;
	4615	 40	 0.034444	 0.109012	 0.0076	 266.0	 266.0	 266.0	 0.0	 0.0	 1	 -30.0	 30.0;
	432	 41	 0.000158	 0.000672	 0.0719	 45089.0	 45089.0	 45089.0	 0.0	 0.0	 1	 -30.0	 30.0;
	3975	 41	 4.5e-05	 8.9e-05	 0.002	 312104.0	 312104.0	 312104.0	 0.0	 0.0	 1	 -30.0	 30.0;
	1488	 42	 0.01096	 0.020063	 0.009	 1460.0	 1460.0	 1460.0	 0.0	 0.0	 1	 -30.0	 30.0;
	2775	 42	 0.002268	 0.008818	 0.0099	 3665.0	 3665.0	 3665.0	 0.0	 0.0	 1	 -30.0	 30.0;
	2734	 43	 0.001481	 0.006296	 0.0039	 4689.0	 4689.0	 4689.0	 0.0	 0.0	 1	 -30.0	 30.0;
	3506	 44	 0.050617	 0.137012	 0.009	 203.0	 203.0	 203.0	 0.0	 0.0	 1	 -30.0	 30.0;
	4347	 44	 0.074326	 0.194507	 0.0021	 142.0	 142.0	 142.0	 0.0	 0.0	 1	 -30.0	 30.0;
	5124	 45	 0.000247	 0.000741	 0.0	 38027.0	 38027.0	 38027.0	 0.0	 0.0	 1	 -30.0	 30.0;
	1089	 46	 0.049131	 0.134039	 0.001	 207.0	 207.0	 207.0	 0.0	 0.0	 1	 -30.0	 30.0;
	2202	 46	 0.033258	 0.090955	 0.001	 305.0	 305.0	 305.0	 0.0	 0.0	 1	 -30.0	 30.0;
	3323	 46	 0.067437	 0.123442	 0.001	 210.0	 210.0	 210.0	 0.0	 0.0	 1	 -30.0	 30.0;
	1089	 47	 0.037289	 0.118166	 0.001	 239.0	 239.0	 239.0	 0.0	 0.0	 1	 -30.0	 30.0;
	5392	 48	 0.021358	 0.057037	 0.0005	 573.0	 573.0	 573.0	 0.0	 0.0	 1	 -30.0	 30.0;
	1227	 49	 0.071303	 0.180902	 0.0021	 152.0	 152.0	 152.0	 0.0	 0.0	 1	 -30.0	 30.0;
	2353	 49	 0.071554	 0.18191	 0.0021	 152.0	 152.0	 152.0	 0.0	 0.0	 1	 -30.0	 30.0;
	473	 50	 0.028193	 0.104535	 0.0013	 278.0	 278.0	 278.0	 0.0	 0.0	 1	 -30.0	 30.0;
	1683	 50	 0.055404	 0.171429	 0.01	 167.0	 167.0	 167.0	 0.0	 0.0	 1	 -30.0	 30.0;
	3572	 50	 0.010834	 0.071554	 0.001	 416.0	 416.0	 416.0	 0.0	 0.0	 1	 -30.0	 30.0;
	4649	 50	 0.013857	 0.030234	 0.0003	 905.0	 905.0	 905.0	 0.0	 0.0	 1	 -30.0	 30.0;
	3572	 50	 0.011414	 0.070648	 0.0009	 421.0	 421.0	 421.0	 0.0	 0.0	 1	 -30.0	 30.0;
	4649	 50	 0.013757	 0.030108	 0.0003	 909.0	 909.0	 909.0	 0.0	 0.0	 1	 -30.0	 30.0;
	1200	 51	 0.00478	 0.028622	 0.0547	 455.0	 455.0	 455.0	 0.0	 0.0	 1	 -30.0	 30.0;
	1201	 51	 0.00478	 0.028583	 0.0547	 455.0	 455.0	 455.0	 0.0	 0.0	 1	 -30.0	 30.0;
	167	 52	 0.01284	 0.032716	 0.0015	 846.0	 846.0	 846.0	 0.0	 0.0	 1	 -30.0	 30.0;
	5518	 52	 0.014198	 0.036049	 0.0016	 767.0	 767.0	 767.0	 0.0	 0.0	 1	 -30.0	 30.0;
	3367	 53	 0.005291	 0.021668	 0.0003	 1285.0	 1285.0	 1285.0	 0.0	 0.0	 1	 -30.0	 30.0;
	2779	 54	 0.01358	 0.047654	 0.0023	 600.0	 600.0	 600.0	 0.0	 0.0	 1	 -30.0	 30.0;
	376	 55	 0.000257	 0.000514	 0.0294	 53862.0	 53862.0	 53862.0	 0.0	 0.0	 1	 -30.0	 30.0;
	2703	 56	 0.000257	 0.002153	 0.2147	 452.0	 452.0	 452.0	 0.0	 0.0	 1	 -30.0	 30.0;
	3445	 56	 0.000277	 0.000869	 0.0931	 481.0	 481.0	 481.0	 0.0	 0.0	 1	 -30.0	 30.0;
	5125	 57	 0.000756	 0.00252	 0.0	 11560.0	 11560.0	 11560.0	 0.0	 0.0	 1	 -30.0	 30.0;
	3408	 58	 0.000237	 0.00083	 0.1863	 35859.0	 35859.0	 35859.0	 0.0	 0.0	 1	 -30.0	 30.0;
	3584	 58	 0.000178	 0.000612	 0.1377	 48564.0	 48564.0	 48564.0	 0.0	 0.0	 1	 -30.0	 30.0;
	142	 59	 0.030486	 0.076342	 0.002	 370.0	 370.0	 370.0	 0.0	 0.0	 1	 -30.0	 30.0;
	1659	 59	 0.011086	 0.024691	 0.0015	 1124.0	 1124.0	 1124.0	 0.0	 0.0	 1	 -30.0	 30.0;
	2487	 60	 0.044344	 0.170572	 0.0021	 173.0	 173.0	 173.0	 0.0	 0.0	 1	 -30.0	 30.0;
	3544	 60	 0.036709	 0.151776	 0.0017	 195.0	 195.0	 195.0	 0.0	 0.0	 1	 -30.0	 30.0;
	2236	 61	 0.017788	 0.048551	 0.0006	 589.0	 589.0	 589.0	 0.0	 0.0	 1	 -30.0	 30.0;
	2645	 61	 0.057521	 0.145251	 0.0017	 195.0	 195.0	 195.0	 0.0	 0.0	 1	 -30.0	 30.0;
	2054	 62	 0.014109	 0.057949	 0.0029	 510.0	 510.0	 510.0	 0.0	 0.0	 1	 -30.0	 30.0;
	2966	 62	 0.007055	 0.02973	 0.0014	 996.0	 996.0	 996.0	 0.0	 0.0	 1	 -30.0	 30.0;
	374	 63	 0.024263	 0.065911	 0.0007	 434.0	 434.0	 434.0	 0.0	 0.0	 1	 -30.0	 30.0;
	3100	 63	 0.020912	 0.059209	 0.0016	 485.0	 485.0	 485.0	 0.0	 0.0	 1	 -30.0	 30.0;
	146	 64	 0.002568	 0.011753	 0.0203	 424.0	 424.0	 424.0	 0.0	 0.0	 1	 -30.0	 30.0;
	5135	 64	 0.002568	 0.011615	 0.0228	 2796.0	 2796.0	 2796.0	 0.0	 0.0	 1	 -30.0	 30.0;
	4627	 65	 0.006299	 0.033585	 0.0599	 891.0	 891.0	 891.0	 0.0	 0.0	 1	 -30.0	 30.0;
	4627	 65	 0.006299	 0.033661	 0.06	 889.0	 889.0	 889.0	 0.0	 0.0	 1	 -30.0	 30.0;
	1552	 66	 0.102293	 0.226757	 0.0025	 119.0	 119.0	 119.0	 0.0	 0.0	 1	 -30.0	 30.0;
	2300	 66	 0.177551	 0.405291	 0.0046	 67.0	 67.0	 67.0	 0.0	 0.0	 1	 -30.0	 30.0;
	3267	 66	 0.088264	 0.161566	 0.0017	 161.0	 161.0	 161.0	 0.0	 0.0	 1	 -30.0	 30.0;
	3049	 67	 0.007307	 0.014613	 0.0002	 1862.0	 1862.0	 1862.0	 0.0	 0.0	 1	 -30.0	 30.0;
	2202	 68	 0.043336	 0.11867	 0.001	 234.0	 234.0	 234.0	 0.0	 0.0	 1	 -30.0	 30.0;
	2896	 68	 0.067775	 0.139834	 0.001	 191.0	 191.0	 191.0	 0.0	 0.0	 1	 -30.0	 30.0;
	4557	 68	 0.047367	 0.16125	 0.0021	 176.0	 176.0	 176.0	 0.0	 0.0	 1	 -30.0	 30.0;
	5178	 68	 0.004031	 0.016629	 0.001	 1726.0	 1726.0	 1726.0	 0.0	 0.0	 1	 -30.0	 30.0;
	4630	 69	 0.073066	 0.205089	 0.0022	 136.0	 136.0	 136.0	 0.0	 0.0	 1	 -30.0	 30.0;
	5126	 70	 4.8e-05	 8.8e-05	 0.0001	 303410.0	 303410.0	 303410.0	 0.0	 0.0	 1	 -30.0	 30.0;
	2173	 71	 0.000252	 0.00252	 0.0008	 11313.0	 11313.0	 11313.0	 0.0	 0.0	 1	 -30.0	 30.0;
	3163	 71	 0.030738	 0.088687	 0.0169	 306.0	 306.0	 306.0	 0.0	 0.0	 1	 -30.0	 30.0;
	5127	 71	 0.006551	 0.016377	 0.0171	 1625.0	 1625.0	 1625.0	 0.0	 0.0	 1	 -30.0	 30.0;
	3163	 71	 0.025195	 0.07483	 0.0204	 363.0	 363.0	 363.0	 0.0	 0.0	 1	 -30.0	 30.0;
	3766	 72	 9.9e-05	 0.00077	 0.078	 39870.0	 39870.0	 39870.0	 0.0	 0.0	 1	 -30.0	 30.0;
	3766	 73	 9.9e-05	 0.00077	 0.077	 39870.0	 39870.0	 39870.0	 0.0	 0.0	 1	 -30.0	 30.0;
	5135	 74	 0.000514	 0.003437	 0.0061	 9568.0	 9568.0	 9568.0	 0.0	 0.0	 1	 -30.0	 30.0;
	5155	 74	 0.005476	 0.036879	 0.1255	 522.0	 522.0	 522.0	 0.0	 0.0	 1	 -30.0	 30.0;
	146	 74	 0.000514	 0.003457	 0.0061	 418.0	 418.0	 418.0	 0.0	 0.0	 1	 -30.0	 30.0;
	4988	 75	 0.017531	 0.046914	 0.0023	 597.0	 597.0	 597.0	 0.0	 0.0	 1	 -30.0	 30.0;
	2091	 75	 0.005309	 0.014321	 0.0006	 1953.0	 1953.0	 1953.0	 0.0	 0.0	 1	 -30.0	 30.0;
	3101	 76	 0.003477	 0.01118	 0.0187	 2644.0	 2644.0	 2644.0	 0.0	 0.0	 1	 -30.0	 30.0;
	3852	 76	 0.000612	 0.003121	 0.0152	 9733.0	 9733.0	 9733.0	 0.0	 0.0	 1	 -30.0	 30.0;
	2352	 77	 0.013857	 0.035525	 0.0004	 775.0	 775.0	 775.0	 0.0	 0.0	 1	 -30.0	 30.0;
	243	 78	 0.002771	 0.008314	 0.0083	 3471.0	 3471.0	 3471.0	 0.0	 0.0	 1	 -30.0	 30.0;
	4582	 78	 0.000151	 0.000302	 0.0	 90076.0	 90076.0	 90076.0	 0.0	 0.0	 1	 -30.0	 30.0;
	632	 79	 0.010758	 0.02187	 0.0071	 1176.0	 1176.0	 1176.0	 0.0	 0.0	 1	 -30.0	 30.0;
	1877	 79	 0.003779	 0.014613	 0.0198	 1899.0	 1899.0	 1899.0	 0.0	 0.0	 1	 -30.0	 30.0;
	2420	 79	 0.008314	 0.017057	 0.024	 1510.0	 1510.0	 1510.0	 0.0	 0.0	 1	 -30.0	 30.0;
	4102	 79	 0.000252	 0.001764	 0.0043	 16079.0	 16079.0	 16079.0	 0.0	 0.0	 1	 -30.0	 30.0;
	632	 79	 0.010758	 0.02187	 0.0071	 1176.0	 1176.0	 1176.0	 0.0	 0.0	 1	 -30.0	 30.0;
	4101	 79	 0.000302	 0.001562	 0.0037	 18009.0	 18009.0	 18009.0	 0.0	 0.0	 1	 -30.0	 30.0;
	4103	 81	 2.4e-05	 0.000144	 0.0213	 701.0	 701.0	 701.0	 0.0	 0.0	 1	 -30.0	 30.0;
	4103	 80	 7.1e-05	 0.000162	 0.0162	 174996.0	 174996.0	 174996.0	 0.0	 0.0	 1	 -30.0	 30.0;
	676	 82	 0.068027	 0.173091	 0.002	 159.0	 159.0	 159.0	 0.0	 0.0	 1	 -30.0	 30.0;
	799	 82	 0.027211	 0.068783	 0.001	 400.0	 400.0	 400.0	 0.0	 0.0	 1	 -30.0	 30.0;
	2079	 82	 0.03099	 0.202822	 0.002	 144.0	 144.0	 144.0	 0.0	 0.0	 1	 -30.0	 30.0;
	3503	 83	 0.000257	 0.001165	 0.002	 405.0	 405.0	 405.0	 0.0	 0.0	 1	 -30.0	 30.0;
	2137	 84	 0.045603	 0.11741	 0.001	 235.0	 235.0	 235.0	 0.0	 0.0	 1	 -30.0	 30.0;
	3822	 84	 0.008566	 0.024691	 0.0	 1130.0	 1130.0	 1130.0	 0.0	 0.0	 1	 -30.0	 30.0;
	5130	 85	 0.047317	 0.131595	 0.0015	 212.0	 212.0	 212.0	 0.0	 0.0	 1	 -30.0	 30.0;
	2821	 86	 0.040494	 0.128889	 0.0064	 220.0	 220.0	 220.0	 0.0	 0.0	 1	 -30.0	 30.0;
	3530	 86	 0.037778	 0.097037	 0.0045	 286.0	 286.0	 286.0	 0.0	 0.0	 1	 -30.0	 30.0;
	3791	 87	 0.032071	 0.058705	 0.0006	 455.0	 455.0	 455.0	 0.0	 0.0	 1	 -30.0	 30.0;
	4371	 87	 0.062887	 0.204157	 0.002	 143.0	 143.0	 143.0	 0.0	 0.0	 1	 -30.0	 30.0;
	3791	 87	 0.032026	 0.058624	 0.0006	 456.0	 456.0	 456.0	 0.0	 0.0	 1	 -30.0	 30.0;
	1624	 88	 0.075838	 0.224742	 0.0027	 125.0	 125.0	 125.0	 0.0	 0.0	 1	 -30.0	 30.0;
	1713	 88	 0.028471	 0.089695	 0.001	 314.0	 314.0	 314.0	 0.0	 0.0	 1	 -30.0	 30.0;
	3663	 88	 0.080373	 0.255732	 0.003	 111.0	 111.0	 111.0	 0.0	 0.0	 1	 -30.0	 30.0;
	5588	 88	 0.000252	 0.000504	 0.0	 52398.0	 52398.0	 52398.0	 0.0	 0.0	 1	 -30.0	 30.0;
...